*SPEF "ieee 1481-1999"
*DESIGN "netlist_0"
*DATE "21:15:31 Sunday July 21, 2024"
*VENDOR "The OpenROAD Project"
*PROGRAM "OpenROAD"
*VERSION "d423155d69de7f683a23f6916ead418a615ad4ad"
*DESIGN_FLOW "NAME_SCOPE LOCAL" "PIN_CAP NONE"
*DIVIDER /
*DELIMITER :
*BUS_DELIMITER []
*T_UNIT 1 NS
*C_UNIT 1 PF
*R_UNIT 1 OHM
*L_UNIT 1 HENRY

*NAME_MAP
*3 clk
*4 in0
*5 in1
*6 in10
*7 in11
*8 in12
*9 in13
*10 in14
*11 in15
*12 in16
*13 in17
*14 in18
*15 in19
*16 in2
*17 in20
*18 in21
*19 in22
*20 in23
*21 in24
*22 in3
*23 in4
*24 in5
*25 in6
*26 in7
*27 in8
*28 in9
*29 out0
*30 out1
*31 out10
*32 out11
*33 out12
*34 out13
*35 out14
*36 out15
*37 out16
*38 out17
*39 out18
*40 out19
*41 out2
*42 out20
*43 out21
*44 out22
*45 out23
*46 out24
*47 out3
*48 out4
*49 out5
*50 out6
*51 out7
*52 out8
*53 out9
*54 rst
*55 clknet_0_clk
*56 clknet_0_net103
*57 clknet_0_net201
*58 clknet_0_net210
*59 clknet_0_net214
*60 clknet_0_net222
*61 clknet_0_net223
*62 clknet_0_net225
*63 clknet_0_net227
*64 clknet_0_net234
*65 clknet_0_net240
*66 clknet_0_net241
*67 clknet_0_net339
*68 clknet_0_net346
*69 clknet_0_net352
*70 clknet_0_net364
*71 clknet_0_net365
*72 clknet_0_net367
*73 clknet_0_net370
*74 clknet_0_net409
*75 clknet_0_net420
*76 clknet_0_net427
*77 clknet_0_net430
*78 clknet_0_net440
*79 clknet_0_net441
*80 clknet_0_net459
*81 clknet_0_net460
*82 clknet_0_net461
*83 clknet_0_net464
*84 clknet_0_net466
*85 clknet_0_net467
*86 clknet_0_net471
*87 clknet_0_net472
*88 clknet_0_net478
*89 clknet_0_net486
*90 clknet_0_net499
*91 clknet_0_net501
*92 clknet_0_net502
*93 clknet_0_net532
*94 clknet_0_net533
*95 clknet_0_net534
*96 clknet_0_net540
*97 clknet_0_net548
*98 clknet_0_net554
*99 clknet_0_net556
*100 clknet_0_net557
*101 clknet_0_net562
*102 clknet_0_net574
*103 clknet_0_net578
*104 clknet_0_net579
*105 clknet_0_net580
*106 clknet_0_net581
*107 clknet_0_net583
*108 clknet_0_net584
*109 clknet_0_net593
*110 clknet_0_net611
*111 clknet_0_net613
*112 clknet_0_net621
*113 clknet_0_net629
*114 clknet_0_net639
*115 clknet_0_net641
*116 clknet_0_net645
*117 clknet_0_net649
*118 clknet_0_net655
*119 clknet_0_net657
*120 clknet_0_net662
*121 clknet_0_net664
*122 clknet_0_net665
*123 clknet_0_net666
*124 clknet_0_net674
*125 clknet_0_net678
*126 clknet_0_net679
*127 clknet_0_net696
*128 clknet_0_net711
*129 clknet_0_net715
*130 clknet_0_net724
*131 clknet_0_net728
*132 clknet_0_net78
*133 clknet_0_net81
*134 clknet_0_net821
*135 clknet_0_net822
*136 clknet_0_net823
*137 clknet_0_net83
*138 clknet_0_net839
*139 clknet_0_net840
*140 clknet_0_net841
*141 clknet_0_net85
*142 clknet_0_net858
*143 clknet_0_net875
*144 clknet_0_net876
*145 clknet_0_net89
*146 clknet_0_net892
*147 clknet_0_net894
*148 clknet_0_net912
*149 clknet_0_net913
*150 clknet_0_net914
*151 clknet_0_net957
*152 clknet_0_net967
*153 clknet_0_net972
*154 clknet_1_0__leaf_net103
*155 clknet_1_0__leaf_net201
*156 clknet_1_0__leaf_net210
*157 clknet_1_0__leaf_net214
*158 clknet_1_0__leaf_net222
*159 clknet_1_0__leaf_net223
*160 clknet_1_0__leaf_net225
*161 clknet_1_0__leaf_net227
*162 clknet_1_0__leaf_net234
*163 clknet_1_0__leaf_net240
*164 clknet_1_0__leaf_net241
*165 clknet_1_0__leaf_net339
*166 clknet_1_0__leaf_net346
*167 clknet_1_0__leaf_net352
*168 clknet_1_0__leaf_net364
*169 clknet_1_0__leaf_net365
*170 clknet_1_0__leaf_net367
*171 clknet_1_0__leaf_net370
*172 clknet_1_0__leaf_net409
*173 clknet_1_0__leaf_net420
*174 clknet_1_0__leaf_net427
*175 clknet_1_0__leaf_net430
*176 clknet_1_0__leaf_net440
*177 clknet_1_0__leaf_net441
*178 clknet_1_0__leaf_net459
*179 clknet_1_0__leaf_net460
*180 clknet_1_0__leaf_net461
*181 clknet_1_0__leaf_net464
*182 clknet_1_0__leaf_net466
*183 clknet_1_0__leaf_net467
*184 clknet_1_0__leaf_net471
*185 clknet_1_0__leaf_net472
*186 clknet_1_0__leaf_net478
*187 clknet_1_0__leaf_net486
*188 clknet_1_0__leaf_net499
*189 clknet_1_0__leaf_net501
*190 clknet_1_0__leaf_net502
*191 clknet_1_0__leaf_net532
*192 clknet_1_0__leaf_net533
*193 clknet_1_0__leaf_net534
*194 clknet_1_0__leaf_net540
*195 clknet_1_0__leaf_net548
*196 clknet_1_0__leaf_net554
*197 clknet_1_0__leaf_net556
*198 clknet_1_0__leaf_net557
*199 clknet_1_0__leaf_net562
*200 clknet_1_0__leaf_net574
*201 clknet_1_0__leaf_net578
*202 clknet_1_0__leaf_net579
*203 clknet_1_0__leaf_net580
*204 clknet_1_0__leaf_net581
*205 clknet_1_0__leaf_net583
*206 clknet_1_0__leaf_net584
*207 clknet_1_0__leaf_net593
*208 clknet_1_0__leaf_net611
*209 clknet_1_0__leaf_net613
*210 clknet_1_0__leaf_net621
*211 clknet_1_0__leaf_net629
*212 clknet_1_0__leaf_net639
*213 clknet_1_0__leaf_net641
*214 clknet_1_0__leaf_net645
*215 clknet_1_0__leaf_net649
*216 clknet_1_0__leaf_net655
*217 clknet_1_0__leaf_net657
*218 clknet_1_0__leaf_net662
*219 clknet_1_0__leaf_net664
*220 clknet_1_0__leaf_net665
*221 clknet_1_0__leaf_net666
*222 clknet_1_0__leaf_net674
*223 clknet_1_0__leaf_net678
*224 clknet_1_0__leaf_net679
*225 clknet_1_0__leaf_net696
*226 clknet_1_0__leaf_net711
*227 clknet_1_0__leaf_net715
*228 clknet_1_0__leaf_net724
*229 clknet_1_0__leaf_net728
*230 clknet_1_0__leaf_net78
*231 clknet_1_0__leaf_net81
*232 clknet_1_0__leaf_net821
*233 clknet_1_0__leaf_net822
*234 clknet_1_0__leaf_net823
*235 clknet_1_0__leaf_net83
*236 clknet_1_0__leaf_net839
*237 clknet_1_0__leaf_net840
*238 clknet_1_0__leaf_net841
*239 clknet_1_0__leaf_net85
*240 clknet_1_0__leaf_net858
*241 clknet_1_0__leaf_net875
*242 clknet_1_0__leaf_net876
*243 clknet_1_0__leaf_net89
*244 clknet_1_0__leaf_net892
*245 clknet_1_0__leaf_net894
*246 clknet_1_0__leaf_net912
*247 clknet_1_0__leaf_net913
*248 clknet_1_0__leaf_net914
*249 clknet_1_0__leaf_net957
*250 clknet_1_0__leaf_net967
*251 clknet_1_0__leaf_net972
*252 clknet_1_1__leaf_net103
*253 clknet_1_1__leaf_net201
*254 clknet_1_1__leaf_net210
*255 clknet_1_1__leaf_net214
*256 clknet_1_1__leaf_net222
*257 clknet_1_1__leaf_net223
*258 clknet_1_1__leaf_net225
*259 clknet_1_1__leaf_net227
*260 clknet_1_1__leaf_net234
*261 clknet_1_1__leaf_net240
*262 clknet_1_1__leaf_net241
*263 clknet_1_1__leaf_net339
*264 clknet_1_1__leaf_net346
*265 clknet_1_1__leaf_net352
*266 clknet_1_1__leaf_net364
*267 clknet_1_1__leaf_net365
*268 clknet_1_1__leaf_net367
*269 clknet_1_1__leaf_net370
*270 clknet_1_1__leaf_net409
*271 clknet_1_1__leaf_net420
*272 clknet_1_1__leaf_net427
*273 clknet_1_1__leaf_net430
*274 clknet_1_1__leaf_net440
*275 clknet_1_1__leaf_net441
*276 clknet_1_1__leaf_net459
*277 clknet_1_1__leaf_net460
*278 clknet_1_1__leaf_net461
*279 clknet_1_1__leaf_net464
*280 clknet_1_1__leaf_net466
*281 clknet_1_1__leaf_net467
*282 clknet_1_1__leaf_net471
*283 clknet_1_1__leaf_net472
*284 clknet_1_1__leaf_net478
*285 clknet_1_1__leaf_net486
*286 clknet_1_1__leaf_net499
*287 clknet_1_1__leaf_net501
*288 clknet_1_1__leaf_net502
*289 clknet_1_1__leaf_net532
*290 clknet_1_1__leaf_net533
*291 clknet_1_1__leaf_net534
*292 clknet_1_1__leaf_net540
*293 clknet_1_1__leaf_net548
*294 clknet_1_1__leaf_net554
*295 clknet_1_1__leaf_net556
*296 clknet_1_1__leaf_net557
*297 clknet_1_1__leaf_net562
*298 clknet_1_1__leaf_net574
*299 clknet_1_1__leaf_net578
*300 clknet_1_1__leaf_net579
*301 clknet_1_1__leaf_net580
*302 clknet_1_1__leaf_net581
*303 clknet_1_1__leaf_net583
*304 clknet_1_1__leaf_net584
*305 clknet_1_1__leaf_net593
*306 clknet_1_1__leaf_net611
*307 clknet_1_1__leaf_net613
*308 clknet_1_1__leaf_net621
*309 clknet_1_1__leaf_net629
*310 clknet_1_1__leaf_net639
*311 clknet_1_1__leaf_net641
*312 clknet_1_1__leaf_net645
*313 clknet_1_1__leaf_net649
*314 clknet_1_1__leaf_net655
*315 clknet_1_1__leaf_net657
*316 clknet_1_1__leaf_net662
*317 clknet_1_1__leaf_net664
*318 clknet_1_1__leaf_net665
*319 clknet_1_1__leaf_net666
*320 clknet_1_1__leaf_net674
*321 clknet_1_1__leaf_net678
*322 clknet_1_1__leaf_net679
*323 clknet_1_1__leaf_net696
*324 clknet_1_1__leaf_net711
*325 clknet_1_1__leaf_net715
*326 clknet_1_1__leaf_net724
*327 clknet_1_1__leaf_net728
*328 clknet_1_1__leaf_net78
*329 clknet_1_1__leaf_net81
*330 clknet_1_1__leaf_net821
*331 clknet_1_1__leaf_net822
*332 clknet_1_1__leaf_net823
*333 clknet_1_1__leaf_net83
*334 clknet_1_1__leaf_net839
*335 clknet_1_1__leaf_net840
*336 clknet_1_1__leaf_net841
*337 clknet_1_1__leaf_net85
*338 clknet_1_1__leaf_net858
*339 clknet_1_1__leaf_net875
*340 clknet_1_1__leaf_net876
*341 clknet_1_1__leaf_net89
*342 clknet_1_1__leaf_net892
*343 clknet_1_1__leaf_net894
*344 clknet_1_1__leaf_net912
*345 clknet_1_1__leaf_net913
*346 clknet_1_1__leaf_net914
*347 clknet_1_1__leaf_net957
*348 clknet_1_1__leaf_net967
*349 clknet_1_1__leaf_net972
*350 clknet_4_0_0_clk
*351 clknet_4_10_0_clk
*352 clknet_4_11_0_clk
*353 clknet_4_12_0_clk
*354 clknet_4_13_0_clk
*355 clknet_4_14_0_clk
*356 clknet_4_15_0_clk
*357 clknet_4_1_0_clk
*358 clknet_4_2_0_clk
*359 clknet_4_3_0_clk
*360 clknet_4_4_0_clk
*361 clknet_4_5_0_clk
*362 clknet_4_6_0_clk
*363 clknet_4_7_0_clk
*364 clknet_4_8_0_clk
*365 clknet_4_9_0_clk
*366 net0
*367 net1
*368 net10
*369 net100
*370 net1000
*371 net1001
*372 net1002
*373 net1003
*374 net1004
*375 net1005
*376 net1006
*377 net1007
*378 net1008
*379 net1009
*380 net101
*381 net1010
*382 net1011
*383 net1012
*384 net1013
*385 net1014
*386 net1015
*387 net1016
*388 net1017
*389 net1018
*390 net1019
*391 net102
*392 net1020
*393 net1021
*394 net1022
*395 net1023
*396 net1024
*397 net1025
*398 net1026
*399 net1027
*400 net1028
*401 net1029
*402 net103
*403 net1030
*404 net1031
*405 net1032
*406 net1033
*407 net1034
*408 net1035
*409 net1036
*410 net1037
*411 net1038
*412 net1039
*413 net104
*414 net1040
*415 net1041
*416 net1042
*417 net1043
*418 net1044
*419 net1045
*420 net1046
*421 net1047
*422 net1048
*423 net1049
*424 net105
*425 net1050
*426 net1051
*427 net1052
*428 net1053
*429 net1054
*430 net1055
*431 net1056
*432 net1057
*433 net1058
*434 net1059
*435 net106
*436 net1060
*437 net1061
*438 net1062
*439 net1063
*440 net1064
*441 net1065
*442 net107
*443 net108
*444 net109
*445 net11
*446 net110
*447 net111
*448 net112
*449 net113
*450 net114
*451 net115
*452 net116
*453 net117
*454 net118
*455 net119
*456 net12
*457 net120
*458 net121
*459 net122
*460 net123
*461 net124
*462 net125
*463 net126
*464 net127
*465 net128
*466 net129
*467 net13
*468 net130
*469 net131
*470 net132
*471 net133
*472 net134
*473 net135
*474 net136
*475 net137
*476 net138
*477 net139
*478 net14
*479 net140
*480 net141
*481 net142
*482 net143
*483 net144
*484 net145
*485 net146
*486 net147
*487 net148
*488 net149
*489 net15
*490 net150
*491 net151
*492 net152
*493 net153
*494 net154
*495 net155
*496 net156
*497 net157
*498 net158
*499 net159
*500 net16
*501 net160
*502 net161
*503 net162
*504 net163
*505 net164
*506 net165
*507 net166
*508 net167
*509 net168
*510 net169
*511 net17
*512 net170
*513 net171
*514 net172
*515 net173
*516 net174
*517 net175
*518 net176
*519 net177
*520 net178
*521 net179
*522 net18
*523 net180
*524 net181
*525 net182
*526 net183
*527 net184
*528 net185
*529 net186
*530 net187
*531 net188
*532 net189
*533 net19
*534 net190
*535 net191
*536 net192
*537 net193
*538 net194
*539 net195
*540 net196
*541 net197
*542 net198
*543 net199
*544 net2
*545 net20
*546 net200
*547 net201
*548 net202
*549 net203
*550 net204
*551 net205
*552 net206
*553 net207
*554 net208
*555 net209
*556 net21
*557 net210
*558 net211
*559 net212
*560 net213
*561 net214
*562 net215
*563 net216
*564 net217
*565 net218
*566 net219
*567 net22
*568 net220
*569 net221
*570 net222
*571 net223
*572 net224
*573 net225
*574 net226
*575 net227
*576 net228
*577 net229
*578 net23
*579 net230
*580 net231
*581 net232
*582 net233
*583 net234
*584 net235
*585 net236
*586 net237
*587 net238
*588 net239
*589 net24
*590 net240
*591 net241
*592 net242
*593 net243
*594 net244
*595 net245
*596 net246
*597 net247
*598 net248
*599 net249
*600 net25
*601 net250
*602 net251
*603 net252
*604 net253
*605 net254
*606 net255
*607 net256
*608 net257
*609 net258
*610 net259
*611 net26
*612 net260
*613 net261
*614 net262
*615 net263
*616 net264
*617 net265
*618 net266
*619 net267
*620 net268
*621 net269
*622 net27
*623 net270
*624 net271
*625 net272
*626 net273
*627 net274
*628 net275
*629 net276
*630 net277
*631 net278
*632 net279
*633 net28
*634 net280
*635 net281
*636 net282
*637 net283
*638 net284
*639 net285
*640 net286
*641 net287
*642 net288
*643 net289
*644 net29
*645 net290
*646 net291
*647 net292
*648 net293
*649 net294
*650 net295
*651 net296
*652 net297
*653 net298
*654 net299
*655 net3
*656 net30
*657 net300
*658 net301
*659 net302
*660 net303
*661 net304
*662 net305
*663 net306
*664 net307
*665 net308
*666 net309
*667 net31
*668 net310
*669 net311
*670 net312
*671 net313
*672 net314
*673 net315
*674 net316
*675 net317
*676 net318
*677 net319
*678 net32
*679 net320
*680 net321
*681 net322
*682 net323
*683 net324
*684 net325
*685 net326
*686 net327
*687 net328
*688 net329
*689 net33
*690 net330
*691 net331
*692 net332
*693 net333
*694 net334
*695 net335
*696 net336
*697 net337
*698 net338
*699 net339
*700 net34
*701 net340
*702 net341
*703 net342
*704 net343
*705 net344
*706 net345
*707 net346
*708 net347
*709 net348
*710 net349
*711 net35
*712 net350
*713 net351
*714 net352
*715 net353
*716 net354
*717 net355
*718 net356
*719 net357
*720 net358
*721 net359
*722 net36
*723 net360
*724 net361
*725 net362
*726 net363
*727 net364
*728 net365
*729 net366
*730 net367
*731 net368
*732 net369
*733 net37
*734 net370
*735 net371
*736 net372
*737 net373
*738 net374
*739 net375
*740 net376
*741 net377
*742 net378
*743 net379
*744 net38
*745 net380
*746 net381
*747 net382
*748 net383
*749 net384
*750 net385
*751 net386
*752 net387
*753 net388
*754 net389
*755 net39
*756 net390
*757 net391
*758 net392
*759 net393
*760 net394
*761 net395
*762 net396
*763 net397
*764 net398
*765 net399
*766 net4
*767 net40
*768 net400
*769 net401
*770 net402
*771 net403
*772 net404
*773 net405
*774 net406
*775 net407
*776 net408
*777 net409
*778 net41
*779 net410
*780 net411
*781 net412
*782 net413
*783 net414
*784 net415
*785 net416
*786 net417
*787 net418
*788 net419
*789 net42
*790 net420
*791 net421
*792 net422
*793 net423
*794 net424
*795 net425
*796 net426
*797 net427
*798 net428
*799 net429
*800 net43
*801 net430
*802 net431
*803 net432
*804 net433
*805 net434
*806 net435
*807 net436
*808 net437
*809 net438
*810 net439
*811 net44
*812 net440
*813 net441
*814 net442
*815 net443
*816 net444
*817 net445
*818 net446
*819 net447
*820 net448
*821 net449
*822 net45
*823 net450
*824 net451
*825 net452
*826 net453
*827 net454
*828 net455
*829 net456
*830 net457
*831 net458
*832 net459
*833 net46
*834 net460
*835 net461
*836 net462
*837 net463
*838 net464
*839 net465
*840 net466
*841 net467
*842 net468
*843 net469
*844 net47
*845 net470
*846 net471
*847 net472
*848 net473
*849 net474
*850 net475
*851 net476
*852 net477
*853 net478
*854 net479
*855 net48
*856 net480
*857 net481
*858 net482
*859 net483
*860 net484
*861 net485
*862 net486
*863 net487
*864 net488
*865 net489
*866 net49
*867 net490
*868 net491
*869 net492
*870 net493
*871 net494
*872 net495
*873 net496
*874 net497
*875 net498
*876 net499
*877 net5
*878 net50
*879 net500
*880 net501
*881 net502
*882 net503
*883 net504
*884 net505
*885 net506
*886 net507
*887 net508
*888 net509
*889 net51
*890 net510
*891 net511
*892 net512
*893 net513
*894 net514
*895 net515
*896 net516
*897 net517
*898 net518
*899 net519
*900 net52
*901 net520
*902 net521
*903 net522
*904 net523
*905 net524
*906 net525
*907 net526
*908 net527
*909 net528
*910 net529
*911 net53
*912 net530
*913 net531
*914 net532
*915 net533
*916 net534
*917 net535
*918 net536
*919 net537
*920 net538
*921 net539
*922 net54
*923 net540
*924 net541
*925 net542
*926 net543
*927 net544
*928 net545
*929 net546
*930 net547
*931 net548
*932 net549
*933 net55
*934 net550
*935 net551
*936 net552
*937 net553
*938 net554
*939 net555
*940 net556
*941 net557
*942 net558
*943 net559
*944 net56
*945 net560
*946 net561
*947 net562
*948 net563
*949 net564
*950 net565
*951 net566
*952 net567
*953 net568
*954 net569
*955 net57
*956 net570
*957 net571
*958 net572
*959 net573
*960 net574
*961 net575
*962 net576
*963 net577
*964 net578
*965 net579
*966 net58
*967 net580
*968 net581
*969 net582
*970 net583
*971 net584
*972 net585
*973 net586
*974 net587
*975 net588
*976 net589
*977 net59
*978 net590
*979 net591
*980 net592
*981 net593
*982 net594
*983 net595
*984 net596
*985 net597
*986 net598
*987 net599
*988 net6
*989 net60
*990 net600
*991 net601
*992 net602
*993 net603
*994 net604
*995 net605
*996 net606
*997 net607
*998 net608
*999 net609
*1000 net61
*1001 net610
*1002 net611
*1003 net612
*1004 net613
*1005 net614
*1006 net615
*1007 net616
*1008 net617
*1009 net618
*1010 net619
*1011 net62
*1012 net620
*1013 net621
*1014 net622
*1015 net623
*1016 net624
*1017 net625
*1018 net626
*1019 net627
*1020 net628
*1021 net629
*1022 net63
*1023 net630
*1024 net631
*1025 net632
*1026 net633
*1027 net634
*1028 net635
*1029 net636
*1030 net637
*1031 net638
*1032 net639
*1033 net64
*1034 net640
*1035 net641
*1036 net642
*1037 net643
*1038 net644
*1039 net645
*1040 net646
*1041 net647
*1042 net648
*1043 net649
*1044 net65
*1045 net650
*1046 net651
*1047 net652
*1048 net653
*1049 net654
*1050 net655
*1051 net656
*1052 net657
*1053 net658
*1054 net659
*1055 net66
*1056 net660
*1057 net661
*1058 net662
*1059 net663
*1060 net664
*1061 net665
*1062 net666
*1063 net667
*1064 net668
*1065 net669
*1066 net67
*1067 net670
*1068 net671
*1069 net672
*1070 net673
*1071 net674
*1072 net675
*1073 net676
*1074 net677
*1075 net678
*1076 net679
*1077 net68
*1078 net680
*1079 net681
*1080 net682
*1081 net683
*1082 net684
*1083 net685
*1084 net686
*1085 net687
*1086 net688
*1087 net689
*1088 net69
*1089 net690
*1090 net691
*1091 net692
*1092 net693
*1093 net694
*1094 net695
*1095 net696
*1096 net697
*1097 net698
*1098 net699
*1099 net7
*1100 net70
*1101 net700
*1102 net701
*1103 net702
*1104 net703
*1105 net704
*1106 net705
*1107 net706
*1108 net707
*1109 net708
*1110 net709
*1111 net71
*1112 net710
*1113 net711
*1114 net712
*1115 net713
*1116 net714
*1117 net715
*1118 net716
*1119 net717
*1120 net718
*1121 net719
*1122 net72
*1123 net720
*1124 net721
*1125 net722
*1126 net723
*1127 net724
*1128 net725
*1129 net726
*1130 net727
*1131 net728
*1132 net729
*1133 net73
*1134 net730
*1135 net731
*1136 net732
*1137 net733
*1138 net734
*1139 net735
*1140 net736
*1141 net737
*1142 net738
*1143 net739
*1144 net74
*1145 net740
*1146 net741
*1147 net742
*1148 net743
*1149 net744
*1150 net745
*1151 net746
*1152 net747
*1153 net748
*1154 net749
*1155 net75
*1156 net750
*1157 net751
*1158 net752
*1159 net753
*1160 net754
*1161 net755
*1162 net756
*1163 net757
*1164 net758
*1165 net759
*1166 net76
*1167 net760
*1168 net761
*1169 net762
*1170 net763
*1171 net764
*1172 net765
*1173 net766
*1174 net767
*1175 net768
*1176 net769
*1177 net77
*1178 net770
*1179 net771
*1180 net772
*1181 net773
*1182 net774
*1183 net775
*1184 net776
*1185 net777
*1186 net778
*1187 net779
*1188 net78
*1189 net780
*1190 net781
*1191 net782
*1192 net783
*1193 net784
*1194 net785
*1195 net786
*1196 net787
*1197 net788
*1198 net789
*1199 net79
*1200 net790
*1201 net791
*1202 net792
*1203 net793
*1204 net794
*1205 net795
*1206 net796
*1207 net797
*1208 net798
*1209 net799
*1210 net8
*1211 net80
*1212 net800
*1213 net801
*1214 net802
*1215 net803
*1216 net804
*1217 net805
*1218 net806
*1219 net807
*1220 net808
*1221 net809
*1222 net81
*1223 net810
*1224 net811
*1225 net812
*1226 net813
*1227 net814
*1228 net815
*1229 net816
*1230 net817
*1231 net818
*1232 net819
*1233 net82
*1234 net820
*1235 net821
*1236 net822
*1237 net823
*1238 net824
*1239 net825
*1240 net826
*1241 net827
*1242 net828
*1243 net829
*1244 net83
*1245 net830
*1246 net831
*1247 net832
*1248 net833
*1249 net834
*1250 net835
*1251 net836
*1252 net837
*1253 net838
*1254 net839
*1255 net84
*1256 net840
*1257 net841
*1258 net842
*1259 net843
*1260 net844
*1261 net845
*1262 net846
*1263 net847
*1264 net848
*1265 net849
*1266 net85
*1267 net850
*1268 net851
*1269 net852
*1270 net853
*1271 net854
*1272 net855
*1273 net856
*1274 net857
*1275 net858
*1276 net859
*1277 net86
*1278 net860
*1279 net861
*1280 net862
*1281 net863
*1282 net864
*1283 net865
*1284 net866
*1285 net867
*1286 net868
*1287 net869
*1288 net87
*1289 net870
*1290 net871
*1291 net872
*1292 net873
*1293 net874
*1294 net875
*1295 net876
*1296 net877
*1297 net878
*1298 net879
*1299 net88
*1300 net880
*1301 net881
*1302 net882
*1303 net883
*1304 net884
*1305 net885
*1306 net886
*1307 net887
*1308 net888
*1309 net889
*1310 net89
*1311 net890
*1312 net891
*1313 net892
*1314 net893
*1315 net894
*1316 net895
*1317 net896
*1318 net897
*1319 net898
*1320 net899
*1321 net9
*1322 net90
*1323 net900
*1324 net901
*1325 net902
*1326 net903
*1327 net904
*1328 net905
*1329 net906
*1330 net907
*1331 net908
*1332 net909
*1333 net91
*1334 net910
*1335 net911
*1336 net912
*1337 net913
*1338 net914
*1339 net915
*1340 net916
*1341 net917
*1342 net918
*1343 net919
*1344 net92
*1345 net920
*1346 net921
*1347 net922
*1348 net923
*1349 net924
*1350 net925
*1351 net926
*1352 net927
*1353 net928
*1354 net929
*1355 net93
*1356 net930
*1357 net931
*1358 net932
*1359 net933
*1360 net934
*1361 net935
*1362 net936
*1363 net937
*1364 net938
*1365 net939
*1366 net94
*1367 net940
*1368 net941
*1369 net942
*1370 net943
*1371 net944
*1372 net945
*1373 net946
*1374 net947
*1375 net948
*1376 net949
*1377 net95
*1378 net950
*1379 net951
*1380 net952
*1381 net953
*1382 net954
*1383 net955
*1384 net956
*1385 net957
*1386 net958
*1387 net959
*1388 net96
*1389 net960
*1390 net961
*1391 net962
*1392 net963
*1393 net964
*1394 net965
*1395 net966
*1396 net967
*1397 net968
*1398 net969
*1399 net97
*1400 net970
*1401 net971
*1402 net972
*1403 net973
*1404 net974
*1405 net975
*1406 net976
*1407 net977
*1408 net978
*1409 net979
*1410 net98
*1411 net980
*1412 net981
*1413 net982
*1414 net983
*1415 net984
*1416 net985
*1417 net986
*1418 net987
*1419 net988
*1420 net989
*1421 net99
*1422 net990
*1423 net991
*1424 net992
*1425 net993
*1426 net994
*1427 net995
*1428 net996
*1429 net997
*1430 net998
*1431 net999
*1432 ANTENNA_1
*1433 ANTENNA_2
*1434 ANTENNA_c100_C
*1435 ANTENNA_c102_Y
*1436 ANTENNA_c103_A
*1437 ANTENNA_c104_1_A
*1438 ANTENNA_c106_C1
*1439 ANTENNA_c106_D1
*1440 ANTENNA_c107_B
*1441 ANTENNA_c108_A3
*1442 ANTENNA_c108_S0
*1443 ANTENNA_c108_S1
*1444 ANTENNA_c109_A3
*1445 ANTENNA_c109_S1
*1446 ANTENNA_c110_B
*1447 ANTENNA_c111_C
*1448 ANTENNA_c112_A
*1449 ANTENNA_c112_C
*1450 ANTENNA_c114_A
*1451 ANTENNA_c114_B
*1452 ANTENNA_c116_RESET_B
*1453 ANTENNA_c118_B
*1454 ANTENNA_c119_D
*1455 ANTENNA_c119_SCE
*1456 ANTENNA_c120_RESET_B
*1457 ANTENNA_c120_SCD
*1458 ANTENNA_c121_SCE
*1459 ANTENNA_c123_C
*1460 ANTENNA_c124_C_N
*1461 ANTENNA_c126_Y
*1462 ANTENNA_c127_A
*1463 ANTENNA_c127_C
*1464 ANTENNA_c127_X
*1465 ANTENNA_c128_RESET_B
*1466 ANTENNA_c128_SCE
*1467 ANTENNA_c129_A0
*1468 ANTENNA_c129_S0
*1469 ANTENNA_c130_A2
*1470 ANTENNA_c130_S0
*1471 ANTENNA_c131_A1
*1472 ANTENNA_c131_A2
*1473 ANTENNA_c132_A
*1474 ANTENNA_c133_B_N
*1475 ANTENNA_c133_Y
*1476 ANTENNA_c134_B
*1477 ANTENNA_c135_A
*1478 ANTENNA_c136_A
*1479 ANTENNA_c137_A
*1480 ANTENNA_c142_X
*1481 ANTENNA_c144_B
*1482 ANTENNA_c146_A
*1483 ANTENNA_c147_Y
*1484 ANTENNA_c149_D1
*1485 ANTENNA_c151_A1
*1486 ANTENNA_c151_S1
*1487 ANTENNA_c152_C_N
*1488 ANTENNA_c152_X
*1489 ANTENNA_c153_A3
*1490 ANTENNA_c153_S0
*1491 ANTENNA_c153_S1
*1492 ANTENNA_c157_A
*1493 ANTENNA_c160_Y
*1494 ANTENNA_c161_A
*1495 ANTENNA_c162_A
*1496 ANTENNA_c162_X
*1497 ANTENNA_c163_B
*1498 ANTENNA_c163_Y
*1499 ANTENNA_c164_B_N
*1500 ANTENNA_c164_Y
*1501 ANTENNA_c167_A1
*1502 ANTENNA_c167_S0
*1503 ANTENNA_c168_A1
*1504 ANTENNA_c168_A3
*1505 ANTENNA_c168_S0
*1506 ANTENNA_c168_S1
*1507 ANTENNA_c168_X
*1508 ANTENNA_c169_A
*1509 ANTENNA_c169_C
*1510 ANTENNA_c170_B
*1511 ANTENNA_c170_C
*1512 ANTENNA_c171_Y
*1513 ANTENNA_c172_A2
*1514 ANTENNA_c172_D1
*1515 ANTENNA_c173_C
*1516 ANTENNA_c174_X
*1517 ANTENNA_c175_A0
*1518 ANTENNA_c175_A1
*1519 ANTENNA_c175_S0
*1520 ANTENNA_c175_S1
*1521 ANTENNA_c175_X
*1522 ANTENNA_c176_A
*1523 ANTENNA_c176_X
*1524 ANTENNA_c177_B
*1525 ANTENNA_c179_X
*1526 ANTENNA_c180_A
*1527 ANTENNA_c180_B
*1528 ANTENNA_c181_B
*1529 ANTENNA_c182_C
*1530 ANTENNA_c184_C
*1531 ANTENNA_c186_A1
*1532 ANTENNA_c186_B1
*1533 ANTENNA_c186_D1
*1534 ANTENNA_c187_CLK_N
*1535 ANTENNA_c187_Q
*1536 ANTENNA_c187_SCE
*1537 ANTENNA_c188_C_N
*1538 ANTENNA_c188_D_N
*1539 ANTENNA_c188_X
*1540 ANTENNA_c190_A
*1541 ANTENNA_c190_C_N
*1542 ANTENNA_c190_D_N
*1543 ANTENNA_c191_A3
*1544 ANTENNA_c192_CLK_N
*1545 ANTENNA_c192_Q
*1546 ANTENNA_c192_SCE
*1547 ANTENNA_c193_X
*1548 ANTENNA_c195_A2
*1549 ANTENNA_c195_S0
*1550 ANTENNA_c196_D_N
*1551 ANTENNA_c197_D_N
*1552 ANTENNA_c198_B
*1553 ANTENNA_c198_C
*1554 ANTENNA_c198_X
*1555 ANTENNA_c199_A
*1556 ANTENNA_c200_A_N
*1557 ANTENNA_c201_B
*1558 ANTENNA_c202_B
*1559 ANTENNA_c204_B
*1560 ANTENNA_c207_C_N
*1561 ANTENNA_c208_D_N
*1562 ANTENNA_c209_Y
*1563 ANTENNA_c210_B
*1564 ANTENNA_c210_Y
*1565 ANTENNA_c211_Y
*1566 ANTENNA_c212_X
*1567 ANTENNA_c213_B
*1568 ANTENNA_c214_B_N
*1569 ANTENNA_c217_A2
*1570 ANTENNA_c217_A3
*1571 ANTENNA_c218_B
*1572 ANTENNA_c219_X
*1573 ANTENNA_c220_B
*1574 ANTENNA_c223_Y
*1575 ANTENNA_c226_C_N
*1576 ANTENNA_c227_A1
*1577 ANTENNA_c227_A2
*1578 ANTENNA_c227_C1
*1579 ANTENNA_c227_D1
*1580 ANTENNA_c227_X
*1581 ANTENNA_c230_C_N
*1582 ANTENNA_c230_D_N
*1583 ANTENNA_c231_B
*1584 ANTENNA_c234_B
*1585 ANTENNA_c235_C1
*1586 ANTENNA_c236_B
*1587 ANTENNA_c236_C_N
*1588 ANTENNA_c237_A1
*1589 ANTENNA_c237_S0
*1590 ANTENNA_c238_A0
*1591 ANTENNA_c238_A3
*1592 ANTENNA_c238_S1
*1593 ANTENNA_c239_A1
*1594 ANTENNA_c239_S0
*1595 ANTENNA_c240_A1
*1596 ANTENNA_c240_A2
*1597 ANTENNA_c241_A3
*1598 ANTENNA_c244_C
*1599 ANTENNA_c246_B
*1600 ANTENNA_c249_B
*1601 ANTENNA_c249_Y
*1602 ANTENNA_c252_Y
*1603 ANTENNA_c253_A
*1604 ANTENNA_c254_C_N
*1605 ANTENNA_c255_A3
*1606 ANTENNA_c255_S0
*1607 ANTENNA_c255_S1
*1608 ANTENNA_c256_A2
*1609 ANTENNA_c256_B1
*1610 ANTENNA_c257_A
*1611 ANTENNA_c257_B
*1612 ANTENNA_c257_C_N
*1613 ANTENNA_c258_B
*1614 ANTENNA_c25_B
*1615 ANTENNA_c261_A2
*1616 ANTENNA_c261_A3
*1617 ANTENNA_c261_S0
*1618 ANTENNA_c263_A3
*1619 ANTENNA_c264_B
*1620 ANTENNA_c265_B_N
*1621 ANTENNA_c266_B_N
*1622 ANTENNA_c267_B
*1623 ANTENNA_c268_A
*1624 ANTENNA_c26_B
*1625 ANTENNA_c26_X
*1626 ANTENNA_c270_A
*1627 ANTENNA_c270_X
*1628 ANTENNA_c271_A
*1629 ANTENNA_c273_X
*1630 ANTENNA_c274_X
*1631 ANTENNA_c275_B
*1632 ANTENNA_c276_B1
*1633 ANTENNA_c278_B
*1634 ANTENNA_c279_B
*1635 ANTENNA_c279_X
*1636 ANTENNA_c27_B
*1637 ANTENNA_c27_X
*1638 ANTENNA_c281_A_N
*1639 ANTENNA_c281_B
*1640 ANTENNA_c284_S0
*1641 ANTENNA_c285_D1
*1642 ANTENNA_c287_C_N
*1643 ANTENNA_c288_B
*1644 ANTENNA_c288_C
*1645 ANTENNA_c289_C
*1646 ANTENNA_c28_A
*1647 ANTENNA_c28_B_N
*1648 ANTENNA_c290_B
*1649 ANTENNA_c292_A
*1650 ANTENNA_c292_Y
*1651 ANTENNA_c293_A3
*1652 ANTENNA_c293_S1
*1653 ANTENNA_c294_B
*1654 ANTENNA_c294_X
*1655 ANTENNA_c295_A1
*1656 ANTENNA_c295_S0
*1657 ANTENNA_c295_S1
*1658 ANTENNA_c296_A3
*1659 ANTENNA_c296_S0
*1660 ANTENNA_c299_X
*1661 ANTENNA_c29_A
*1662 ANTENNA_c29_B
*1663 ANTENNA_c29_Y
*1664 ANTENNA_c302_A
*1665 ANTENNA_c303_C_N
*1666 ANTENNA_c304_B
*1667 ANTENNA_c306_A3
*1668 ANTENNA_c306_S1
*1669 ANTENNA_c307_A2
*1670 ANTENNA_c307_S0
*1671 ANTENNA_c307_S1
*1672 ANTENNA_c307_X
*1673 ANTENNA_c308_B
*1674 ANTENNA_c308_C_N
*1675 ANTENNA_c308_D_N
*1676 ANTENNA_c308_X
*1677 ANTENNA_c30_Y
*1678 ANTENNA_c310_B
*1679 ANTENNA_c310_C_N
*1680 ANTENNA_c311_CLK
*1681 ANTENNA_c311_RESET_B
*1682 ANTENNA_c311_SCE
*1683 ANTENNA_c311_SET_B
*1684 ANTENNA_c312_X
*1685 ANTENNA_c313_X
*1686 ANTENNA_c315_B
*1687 ANTENNA_c316_A
*1688 ANTENNA_c316_B_N
*1689 ANTENNA_c318_B
*1690 ANTENNA_c319_CLK_N
*1691 ANTENNA_c319_Q
*1692 ANTENNA_c319_Q_N
*1693 ANTENNA_c319_RESET_B
*1694 ANTENNA_c319_SET_B
*1695 ANTENNA_c31_A
*1696 ANTENNA_c31_C
*1697 ANTENNA_c322_B1
*1698 ANTENNA_c322_D1
*1699 ANTENNA_c323_C1
*1700 ANTENNA_c323_D1
*1701 ANTENNA_c324_A2
*1702 ANTENNA_c324_A3
*1703 ANTENNA_c325_CLK_N
*1704 ANTENNA_c325_SET_B
*1705 ANTENNA_c326_CLK
*1706 ANTENNA_c326_D
*1707 ANTENNA_c326_Q
*1708 ANTENNA_c326_Q_N
*1709 ANTENNA_c326_SCE
*1710 ANTENNA_c328_CLK_N
*1711 ANTENNA_c328_RESET_B
*1712 ANTENNA_c329_C1
*1713 ANTENNA_c32_A
*1714 ANTENNA_c32_B
*1715 ANTENNA_c330_B
*1716 ANTENNA_c331_B
*1717 ANTENNA_c331_X
*1718 ANTENNA_c332_A2
*1719 ANTENNA_c332_C1
*1720 ANTENNA_c332_D1
*1721 ANTENNA_c333_A2
*1722 ANTENNA_c333_B1
*1723 ANTENNA_c333_C1
*1724 ANTENNA_c334_A
*1725 ANTENNA_c334_B_N
*1726 ANTENNA_c335_Y
*1727 ANTENNA_c336_A
*1728 ANTENNA_c336_B
*1729 ANTENNA_c338_A
*1730 ANTENNA_c338_B
*1731 ANTENNA_c338_Y
*1732 ANTENNA_c339_B
*1733 ANTENNA_c33_A_N
*1734 ANTENNA_c33_B
*1735 ANTENNA_c341_B
*1736 ANTENNA_c341_C_N
*1737 ANTENNA_c342_A2
*1738 ANTENNA_c342_C1
*1739 ANTENNA_c343_B1
*1740 ANTENNA_c343_C1
*1741 ANTENNA_c344_CLK_N
*1742 ANTENNA_c344_Q
*1743 ANTENNA_c344_Q_N
*1744 ANTENNA_c344_SET_B
*1745 ANTENNA_c347_A
*1746 ANTENNA_c348_X
*1747 ANTENNA_c349_A2
*1748 ANTENNA_c349_B1
*1749 ANTENNA_c349_D1
*1750 ANTENNA_c34_A
*1751 ANTENNA_c34_X
*1752 ANTENNA_c350_A2
*1753 ANTENNA_c350_A3
*1754 ANTENNA_c350_S0
*1755 ANTENNA_c351_A2
*1756 ANTENNA_c351_S0
*1757 ANTENNA_c352_A
*1758 ANTENNA_c352_B
*1759 ANTENNA_c353_B
*1760 ANTENNA_c353_C_N
*1761 ANTENNA_c353_D_N
*1762 ANTENNA_c355_A
*1763 ANTENNA_c355_C
*1764 ANTENNA_c356_B
*1765 ANTENNA_c356_C_N
*1766 ANTENNA_c357_A
*1767 ANTENNA_c357_B
*1768 ANTENNA_c357_C
*1769 ANTENNA_c359_B
*1770 ANTENNA_c359_C_N
*1771 ANTENNA_c359_D_N
*1772 ANTENNA_c35_B
*1773 ANTENNA_c360_C_N
*1774 ANTENNA_c362_CLK_N
*1775 ANTENNA_c362_RESET_B
*1776 ANTENNA_c363_B
*1777 ANTENNA_c364_S0
*1778 ANTENNA_c364_S1
*1779 ANTENNA_c366_A
*1780 ANTENNA_c366_C
*1781 ANTENNA_c367_CLK
*1782 ANTENNA_c367_D
*1783 ANTENNA_c367_RESET_B
*1784 ANTENNA_c369_D_N
*1785 ANTENNA_c36_A
*1786 ANTENNA_c36_B_N
*1787 ANTENNA_c370_S1
*1788 ANTENNA_c371_CLK
*1789 ANTENNA_c371_SCD
*1790 ANTENNA_c372_X
*1791 ANTENNA_c373_A1
*1792 ANTENNA_c373_A2
*1793 ANTENNA_c373_A3
*1794 ANTENNA_c373_S0
*1795 ANTENNA_c374_A1
*1796 ANTENNA_c374_A2