*SPEF "ieee 1481-1999"
*DESIGN "netlist_2"
*DATE "23:46:11 Saturday July 20, 2024"
*VENDOR "The OpenROAD Project"
*PROGRAM "OpenROAD"
*VERSION "d423155d69de7f683a23f6916ead418a615ad4ad"
*DESIGN_FLOW "NAME_SCOPE LOCAL" "PIN_CAP NONE"
*DIVIDER /
*DELIMITER :
*BUS_DELIMITER []
*T_UNIT 1 NS
*C_UNIT 1 PF
*R_UNIT 1 OHM
*L_UNIT 1 HENRY

*NAME_MAP
*3 clk
*4 in0
*5 in1
*6 in10
*7 in11
*8 in12
*9 in13
*10 in14
*11 in15
*12 in16
*13 in17
*14 in18
*15 in19
*16 in2
*17 in20
*18 in21
*19 in22
*20 in23
*21 in24
*22 in25
*23 in26
*24 in27
*25 in28
*26 in29
*27 in3
*28 in30
*29 in31
*30 in32
*31 in33
*32 in34
*33 in35
*34 in36
*35 in37
*36 in38
*37 in39
*38 in4
*39 in40
*40 in41
*41 in42
*42 in43
*43 in44
*44 in45
*45 in46
*46 in47
*47 in48
*48 in49
*49 in5
*50 in50
*51 in51
*52 in52
*53 in53
*54 in54
*55 in55
*56 in56
*57 in57
*58 in58
*59 in59
*60 in6
*61 in60
*62 in61
*63 in62
*64 in63
*65 in64
*66 in65
*67 in66
*68 in67
*69 in68
*70 in69
*71 in7
*72 in70
*73 in71
*74 in72
*75 in73
*76 in74
*77 in75
*78 in76
*79 in77
*80 in78
*81 in79
*82 in8
*83 in80
*84 in81
*85 in82
*86 in83
*87 in84
*88 in85
*89 in86
*90 in87
*91 in88
*92 in89
*93 in9
*94 in90
*95 in91
*96 in92
*97 in93
*98 in94
*99 in95
*100 in96
*101 in97
*102 in98
*103 in99
*104 out0
*105 out1
*106 out10
*107 out11
*108 out12
*109 out13
*110 out14
*111 out15
*112 out16
*113 out17
*114 out18
*115 out19
*116 out2
*117 out20
*118 out21
*119 out22
*120 out23
*121 out24
*122 out25
*123 out26
*124 out27
*125 out28
*126 out29
*127 out3
*128 out30
*129 out31
*130 out32
*131 out33
*132 out34
*133 out35
*134 out36
*135 out37
*136 out38
*137 out39
*138 out4
*139 out40
*140 out41
*141 out42
*142 out43
*143 out44
*144 out45
*145 out46
*146 out47
*147 out48
*148 out49
*149 out5
*150 out50
*151 out51
*152 out52
*153 out53
*154 out54
*155 out55
*156 out56
*157 out57
*158 out58
*159 out59
*160 out6
*161 out60
*162 out61
*163 out62
*164 out63
*165 out64
*166 out65
*167 out66
*168 out67
*169 out68
*170 out69
*171 out7
*172 out70
*173 out71
*174 out72
*175 out73
*176 out74
*177 out75
*178 out76
*179 out77
*180 out78
*181 out79
*182 out8
*183 out80
*184 out81
*185 out82
*186 out83
*187 out84
*188 out85
*189 out86
*190 out87
*191 out88
*192 out89
*193 out9
*194 out90
*195 out91
*196 out92
*197 out93
*198 out94
*199 out95
*200 out96
*201 out97
*202 out98
*203 out99
*204 rst
*205 clknet_0_clk
*206 clknet_0_net189
*207 clknet_0_net200
*208 clknet_0_net303
*209 clknet_0_net309
*210 clknet_0_net355
*211 clknet_0_net377
*212 clknet_0_net378
*213 clknet_0_net393
*214 clknet_0_net399
*215 clknet_0_net404
*216 clknet_0_net418
*217 clknet_0_net423
*218 clknet_0_net472
*219 clknet_0_net483
*220 clknet_0_net496
*221 clknet_0_net497
*222 clknet_0_net499
*223 clknet_0_net504
*224 clknet_0_net505
*225 clknet_0_net513
*226 clknet_0_net517
*227 clknet_0_net521
*228 clknet_0_net526
*229 clknet_0_net594
*230 clknet_0_net595
*231 clknet_0_net596
*232 clknet_0_net616
*233 clknet_0_net617
*234 clknet_0_net635
*235 clknet_0_net636
*236 clknet_0_net637
*237 clknet_0_net655
*238 clknet_0_net656
*239 clknet_0_net657
*240 clknet_0_net676
*241 clknet_0_net677
*242 clknet_0_net678
*243 clknet_0_net798
*244 clknet_0_net803
*245 clknet_0_net807
*246 clknet_0_net822
*247 clknet_0_net834
*248 clknet_0_net840
*249 clknet_1_0__leaf_net189
*250 clknet_1_0__leaf_net200
*251 clknet_1_0__leaf_net303
*252 clknet_1_0__leaf_net309
*253 clknet_1_0__leaf_net355
*254 clknet_1_0__leaf_net377
*255 clknet_1_0__leaf_net378
*256 clknet_1_0__leaf_net393
*257 clknet_1_0__leaf_net399
*258 clknet_1_0__leaf_net404
*259 clknet_1_0__leaf_net418
*260 clknet_1_0__leaf_net423
*261 clknet_1_0__leaf_net472
*262 clknet_1_0__leaf_net483
*263 clknet_1_0__leaf_net496
*264 clknet_1_0__leaf_net497
*265 clknet_1_0__leaf_net499
*266 clknet_1_0__leaf_net504
*267 clknet_1_0__leaf_net505
*268 clknet_1_0__leaf_net513
*269 clknet_1_0__leaf_net517
*270 clknet_1_0__leaf_net521
*271 clknet_1_0__leaf_net526
*272 clknet_1_0__leaf_net594
*273 clknet_1_0__leaf_net595
*274 clknet_1_0__leaf_net596
*275 clknet_1_0__leaf_net616
*276 clknet_1_0__leaf_net617
*277 clknet_1_0__leaf_net635
*278 clknet_1_0__leaf_net636
*279 clknet_1_0__leaf_net637
*280 clknet_1_0__leaf_net655
*281 clknet_1_0__leaf_net656
*282 clknet_1_0__leaf_net657
*283 clknet_1_0__leaf_net676
*284 clknet_1_0__leaf_net677
*285 clknet_1_0__leaf_net678
*286 clknet_1_0__leaf_net798
*287 clknet_1_0__leaf_net803
*288 clknet_1_0__leaf_net807
*289 clknet_1_0__leaf_net822
*290 clknet_1_0__leaf_net834
*291 clknet_1_0__leaf_net840
*292 clknet_1_1__leaf_net189
*293 clknet_1_1__leaf_net200
*294 clknet_1_1__leaf_net303
*295 clknet_1_1__leaf_net309
*296 clknet_1_1__leaf_net355
*297 clknet_1_1__leaf_net377
*298 clknet_1_1__leaf_net378
*299 clknet_1_1__leaf_net393
*300 clknet_1_1__leaf_net399
*301 clknet_1_1__leaf_net404
*302 clknet_1_1__leaf_net418
*303 clknet_1_1__leaf_net423
*304 clknet_1_1__leaf_net472
*305 clknet_1_1__leaf_net483
*306 clknet_1_1__leaf_net496
*307 clknet_1_1__leaf_net497
*308 clknet_1_1__leaf_net499
*309 clknet_1_1__leaf_net504
*310 clknet_1_1__leaf_net505
*311 clknet_1_1__leaf_net513
*312 clknet_1_1__leaf_net517
*313 clknet_1_1__leaf_net521
*314 clknet_1_1__leaf_net526
*315 clknet_1_1__leaf_net594
*316 clknet_1_1__leaf_net595
*317 clknet_1_1__leaf_net596
*318 clknet_1_1__leaf_net616
*319 clknet_1_1__leaf_net617
*320 clknet_1_1__leaf_net635
*321 clknet_1_1__leaf_net636
*322 clknet_1_1__leaf_net637
*323 clknet_1_1__leaf_net655
*324 clknet_1_1__leaf_net656
*325 clknet_1_1__leaf_net657
*326 clknet_1_1__leaf_net676
*327 clknet_1_1__leaf_net677
*328 clknet_1_1__leaf_net678
*329 clknet_1_1__leaf_net798
*330 clknet_1_1__leaf_net803
*331 clknet_1_1__leaf_net807
*332 clknet_1_1__leaf_net822
*333 clknet_1_1__leaf_net834
*334 clknet_1_1__leaf_net840
*335 clknet_4_0_0_clk
*336 clknet_4_10_0_clk
*337 clknet_4_11_0_clk
*338 clknet_4_12_0_clk
*339 clknet_4_13_0_clk
*340 clknet_4_14_0_clk
*341 clknet_4_15_0_clk
*342 clknet_4_1_0_clk
*343 clknet_4_2_0_clk
*344 clknet_4_3_0_clk
*345 clknet_4_4_0_clk
*346 clknet_4_5_0_clk
*347 clknet_4_6_0_clk
*348 clknet_4_7_0_clk
*349 clknet_4_8_0_clk
*350 clknet_4_9_0_clk
*351 net0
*352 net1
*353 net10
*354 net100
*355 net101
*356 net102
*357 net103
*358 net104
*359 net105
*360 net106
*361 net107
*362 net108
*363 net109
*364 net11
*365 net110
*366 net111
*367 net112
*368 net113
*369 net114
*370 net115
*371 net116
*372 net117
*373 net118
*374 net119
*375 net12
*376 net120
*377 net121
*378 net122
*379 net123
*380 net124
*381 net125
*382 net126
*383 net127
*384 net128
*385 net129
*386 net13
*387 net130
*388 net131
*389 net132
*390 net133
*391 net134
*392 net135
*393 net136
*394 net137
*395 net138
*396 net139
*397 net14
*398 net140
*399 net141
*400 net142
*401 net143
*402 net144
*403 net145
*404 net146
*405 net147
*406 net148
*407 net149
*408 net15
*409 net150
*410 net151
*411 net152
*412 net153
*413 net154
*414 net155
*415 net156
*416 net157
*417 net158
*418 net159
*419 net16
*420 net160
*421 net161
*422 net162
*423 net163
*424 net164
*425 net165
*426 net166
*427 net167
*428 net168
*429 net169
*430 net17
*431 net170
*432 net171
*433 net172
*434 net173
*435 net174
*436 net175
*437 net176
*438 net177
*439 net178
*440 net179
*441 net18
*442 net180
*443 net181
*444 net182
*445 net183
*446 net184
*447 net185
*448 net186
*449 net187
*450 net188
*451 net189
*452 net19
*453 net190
*454 net191
*455 net192
*456 net193
*457 net194
*458 net195
*459 net196
*460 net197
*461 net198
*462 net199
*463 net2
*464 net20
*465 net200
*466 net201
*467 net202
*468 net203
*469 net204
*470 net205
*471 net206
*472 net207
*473 net208
*474 net209
*475 net21
*476 net210
*477 net211
*478 net212
*479 net213
*480 net214
*481 net215
*482 net216
*483 net217
*484 net218
*485 net219
*486 net22
*487 net220
*488 net221
*489 net222
*490 net223
*491 net224
*492 net225
*493 net226
*494 net227
*495 net228
*496 net229
*497 net23
*498 net230
*499 net231
*500 net232
*501 net233
*502 net234
*503 net235
*504 net236
*505 net237
*506 net238
*507 net239
*508 net24
*509 net240
*510 net241
*511 net242
*512 net243
*513 net244
*514 net245
*515 net246
*516 net247
*517 net248
*518 net249
*519 net25
*520 net250
*521 net251
*522 net252
*523 net253
*524 net254
*525 net255
*526 net256
*527 net257
*528 net258
*529 net259
*530 net26
*531 net260
*532 net261
*533 net262
*534 net263
*535 net264
*536 net265
*537 net266
*538 net267
*539 net268
*540 net269
*541 net27
*542 net270
*543 net271
*544 net272
*545 net273
*546 net274
*547 net275
*548 net276
*549 net277
*550 net278
*551 net279
*552 net28
*553 net280
*554 net281
*555 net282
*556 net283
*557 net284
*558 net285
*559 net286
*560 net287
*561 net288
*562 net289
*563 net29
*564 net290
*565 net291
*566 net292
*567 net293
*568 net294
*569 net295
*570 net296
*571 net297
*572 net298
*573 net299
*574 net3
*575 net30
*576 net300
*577 net301
*578 net302
*579 net303
*580 net304
*581 net305
*582 net306
*583 net307
*584 net308
*585 net309
*586 net31
*587 net310
*588 net311
*589 net312
*590 net313
*591 net314
*592 net315
*593 net316
*594 net317
*595 net318
*596 net319
*597 net32
*598 net320
*599 net321
*600 net322
*601 net323
*602 net324
*603 net325
*604 net326
*605 net327
*606 net328
*607 net329
*608 net33
*609 net330
*610 net331
*611 net332
*612 net333
*613 net334
*614 net335
*615 net336
*616 net337
*617 net338
*618 net339
*619 net34
*620 net340
*621 net341
*622 net342
*623 net343
*624 net344
*625 net345
*626 net346
*627 net347
*628 net348
*629 net349
*630 net35
*631 net350
*632 net351
*633 net352
*634 net353
*635 net354
*636 net355
*637 net356
*638 net357
*639 net358
*640 net359
*641 net36
*642 net360
*643 net361
*644 net362
*645 net363
*646 net364
*647 net365
*648 net366
*649 net367
*650 net368
*651 net369
*652 net37
*653 net370
*654 net371
*655 net372
*656 net373
*657 net374
*658 net375
*659 net376
*660 net377
*661 net378
*662 net379
*663 net38
*664 net380
*665 net381
*666 net382
*667 net383
*668 net384
*669 net385
*670 net386
*671 net387
*672 net388
*673 net389
*674 net39
*675 net390
*676 net391
*677 net392
*678 net393
*679 net394
*680 net395
*681 net396
*682 net397
*683 net398
*684 net399
*685 net4
*686 net40
*687 net400
*688 net401
*689 net402
*690 net403
*691 net404
*692 net405
*693 net406
*694 net407
*695 net408
*696 net409
*697 net41
*698 net410
*699 net411
*700 net412
*701 net413
*702 net414
*703 net415
*704 net416
*705 net417
*706 net418
*707 net419
*708 net42
*709 net420
*710 net421
*711 net422
*712 net423
*713 net424
*714 net425
*715 net426
*716 net427
*717 net428
*718 net429
*719 net43
*720 net430
*721 net431
*722 net432
*723 net433
*724 net434
*725 net435
*726 net436
*727 net437
*728 net438
*729 net439
*730 net44
*731 net440
*732 net441
*733 net442
*734 net443
*735 net444
*736 net445
*737 net446
*738 net447
*739 net448
*740 net449
*741 net45
*742 net450
*743 net451
*744 net452
*745 net453
*746 net454
*747 net455
*748 net456
*749 net457
*750 net458
*751 net459
*752 net46
*753 net460
*754 net461
*755 net462
*756 net463
*757 net464
*758 net465
*759 net466
*760 net467
*761 net468
*762 net469
*763 net47
*764 net470
*765 net471
*766 net472
*767 net473
*768 net474
*769 net475
*770 net476
*771 net477
*772 net478
*773 net479
*774 net48
*775 net480
*776 net481
*777 net482
*778 net483
*779 net484
*780 net485
*781 net486
*782 net487
*783 net488
*784 net489
*785 net49
*786 net490
*787 net491
*788 net492
*789 net493
*790 net494
*791 net495
*792 net496
*793 net497
*794 net498
*795 net499
*796 net5
*797 net50
*798 net500
*799 net501
*800 net502
*801 net503
*802 net504
*803 net505
*804 net506
*805 net507
*806 net508
*807 net509
*808 net51
*809 net510
*810 net511
*811 net512
*812 net513
*813 net514
*814 net515
*815 net516
*816 net517
*817 net518
*818 net519
*819 net52
*820 net520
*821 net521
*822 net522
*823 net523
*824 net524
*825 net525
*826 net526
*827 net527
*828 net528
*829 net529
*830 net53
*831 net530
*832 net531
*833 net532
*834 net533
*835 net534
*836 net535
*837 net536
*838 net537
*839 net538
*840 net539
*841 net54
*842 net540
*843 net541
*844 net542
*845 net543
*846 net544
*847 net545
*848 net546
*849 net547
*850 net548
*851 net549
*852 net55
*853 net550
*854 net551
*855 net552
*856 net553
*857 net554
*858 net555
*859 net556
*860 net557
*861 net558
*862 net559
*863 net56
*864 net560
*865 net561
*866 net562
*867 net563
*868 net564
*869 net565
*870 net566
*871 net567
*872 net568
*873 net569
*874 net57
*875 net570
*876 net571
*877 net572
*878 net573
*879 net574
*880 net575
*881 net576
*882 net577
*883 net578
*884 net579
*885 net58
*886 net580
*887 net581
*888 net582
*889 net583
*890 net584
*891 net585
*892 net586
*893 net587
*894 net588
*895 net589
*896 net59
*897 net590
*898 net591
*899 net592
*900 net593
*901 net594
*902 net595
*903 net596
*904 net597
*905 net598
*906 net599
*907 net6
*908 net60
*909 net600
*910 net601
*911 net602
*912 net603
*913 net604
*914 net605
*915 net606
*916 net607
*917 net608
*918 net609
*919 net61
*920 net610
*921 net611
*922 net612
*923 net613
*924 net614
*925 net615
*926 net616
*927 net617
*928 net618
*929 net619
*930 net62
*931 net620
*932 net621
*933 net622
*934 net623
*935 net624
*936 net625
*937 net626
*938 net627
*939 net628
*940 net629
*941 net63
*942 net630
*943 net631
*944 net632
*945 net633
*946 net634
*947 net635
*948 net636
*949 net637
*950 net638
*951 net639
*952 net64
*953 net640
*954 net641
*955 net642
*956 net643
*957 net644
*958 net645
*959 net646
*960 net647
*961 net648
*962 net649
*963 net65
*964 net650
*965 net651
*966 net652
*967 net653
*968 net654
*969 net655
*970 net656
*971 net657
*972 net658
*973 net659
*974 net66
*975 net660
*976 net661
*977 net662
*978 net663
*979 net664
*980 net665
*981 net666
*982 net667
*983 net668
*984 net669
*985 net67
*986 net670
*987 net671
*988 net672
*989 net673
*990 net674
*991 net675
*992 net676
*993 net677
*994 net678
*995 net679
*996 net68
*997 net680
*998 net681
*999 net682
*1000 net683
*1001 net684
*1002 net685
*1003 net686
*1004 net687
*1005 net688
*1006 net689
*1007 net69
*1008 net690
*1009 net691
*1010 net692
*1011 net693
*1012 net694
*1013 net695
*1014 net696
*1015 net697
*1016 net698
*1017 net699
*1018 net7
*1019 net70
*1020 net700
*1021 net701
*1022 net702
*1023 net703
*1024 net704
*1025 net705
*1026 net706
*1027 net707
*1028 net708
*1029 net709
*1030 net71
*1031 net710
*1032 net711
*1033 net712
*1034 net713
*1035 net714
*1036 net715
*1037 net716
*1038 net717
*1039 net718
*1040 net719
*1041 net72
*1042 net720
*1043 net721
*1044 net722
*1045 net723
*1046 net724
*1047 net725
*1048 net726
*1049 net727
*1050 net728
*1051 net729
*1052 net73
*1053 net730
*1054 net731
*1055 net732
*1056 net733
*1057 net734
*1058 net735
*1059 net736
*1060 net737
*1061 net738
*1062 net739
*1063 net74
*1064 net740
*1065 net741
*1066 net742
*1067 net743
*1068 net744
*1069 net745
*1070 net746
*1071 net747
*1072 net748
*1073 net749
*1074 net75
*1075 net750
*1076 net751
*1077 net752
*1078 net753
*1079 net754
*1080 net755
*1081 net756
*1082 net757
*1083 net758
*1084 net759
*1085 net76
*1086 net760
*1087 net761
*1088 net762
*1089 net763
*1090 net764
*1091 net765
*1092 net766
*1093 net767
*1094 net768
*1095 net769
*1096 net77
*1097 net770
*1098 net771
*1099 net772
*1100 net773
*1101 net774
*1102 net775
*1103 net776
*1104 net777
*1105 net778
*1106 net779
*1107 net78
*1108 net780
*1109 net781
*1110 net782
*1111 net783
*1112 net784
*1113 net785
*1114 net786
*1115 net787
*1116 net788
*1117 net789
*1118 net79
*1119 net790
*1120 net791
*1121 net792
*1122 net793
*1123 net794
*1124 net795
*1125 net796
*1126 net797
*1127 net798
*1128 net799
*1129 net8
*1130 net80
*1131 net800
*1132 net801
*1133 net802
*1134 net803
*1135 net804
*1136 net805
*1137 net806
*1138 net807
*1139 net808
*1140 net809
*1141 net81
*1142 net810
*1143 net811
*1144 net812
*1145 net813
*1146 net814
*1147 net815
*1148 net816
*1149 net817
*1150 net818
*1151 net819
*1152 net82
*1153 net820
*1154 net821
*1155 net822
*1156 net823
*1157 net824
*1158 net825
*1159 net826
*1160 net827
*1161 net828
*1162 net829
*1163 net83
*1164 net830
*1165 net831
*1166 net832
*1167 net833
*1168 net834
*1169 net835
*1170 net836
*1171 net837
*1172 net838
*1173 net839
*1174 net84
*1175 net840
*1176 net841
*1177 net842
*1178 net843
*1179 net844
*1180 net845
*1181 net846
*1182 net847
*1183 net848
*1184 net849
*1185 net85
*1186 net850
*1187 net851
*1188 net852
*1189 net853
*1190 net854
*1191 net855
*1192 net856
*1193 net857
*1194 net858
*1195 net859
*1196 net86
*1197 net860
*1198 net861
*1199 net862
*1200 net863
*1201 net864
*1202 net865
*1203 net866
*1204 net867
*1205 net868
*1206 net869
*1207 net87
*1208 net870
*1209 net871
*1210 net872
*1211 net873
*1212 net874
*1213 net875
*1214 net876
*1215 net877
*1216 net878
*1217 net879
*1218 net88
*1219 net880
*1220 net881
*1221 net882
*1222 net883
*1223 net884
*1224 net885
*1225 net886
*1226 net887
*1227 net888
*1228 net889
*1229 net89
*1230 net890
*1231 net891
*1232 net892
*1233 net893
*1234 net894
*1235 net895
*1236 net896
*1237 net897
*1238 net898
*1239 net899
*1240 net9
*1241 net90
*1242 net900
*1243 net901
*1244 net902
*1245 net903
*1246 net904
*1247 net905
*1248 net906
*1249 net907
*1250 net908
*1251 net909
*1252 net91
*1253 net910
*1254 net911
*1255 net912
*1256 net913
*1257 net914
*1258 net915
*1259 net916
*1260 net917
*1261 net918
*1262 net919
*1263 net92
*1264 net920
*1265 net921
*1266 net922
*1267 net923
*1268 net924
*1269 net925
*1270 net926
*1271 net927
*1272 net928
*1273 net929
*1274 net93
*1275 net930
*1276 net931
*1277 net932
*1278 net933
*1279 net934
*1280 net935
*1281 net936
*1282 net937
*1283 net938
*1284 net939
*1285 net94
*1286 net940
*1287 net941
*1288 net942
*1289 net943
*1290 net944
*1291 net945
*1292 net946
*1293 net947
*1294 net948
*1295 net949
*1296 net95
*1297 net950
*1298 net951
*1299 net952
*1300 net953
*1301 net954
*1302 net955
*1303 net956
*1304 net957
*1305 net958
*1306 net959
*1307 net96
*1308 net97
*1309 net98
*1310 net99
*1311 ANTENNA_1
*1312 ANTENNA_c100_A2
*1313 ANTENNA_c100_A3
*1314 ANTENNA_c101_A1
*1315 ANTENNA_c101_S0
*1316 ANTENNA_c101_S1
*1317 ANTENNA_c103_S1
*1318 ANTENNA_c103_X
*1319 ANTENNA_c104_S0
*1320 ANTENNA_c104_S1
*1321 ANTENNA_c105_S0
*1322 ANTENNA_c105_S1
*1323 ANTENNA_c106_A2
*1324 ANTENNA_c106_B1
*1325 ANTENNA_c107_A1
*1326 ANTENNA_c107_A2
*1327 ANTENNA_c108_A3
*1328 ANTENNA_c108_S0
*1329 ANTENNA_c109_A1
*1330 ANTENNA_c109_A3
*1331 ANTENNA_c122_A0
*1332 ANTENNA_c125_S1
*1333 ANTENNA_c126_A2
*1334 ANTENNA_c127_S0
*1335 ANTENNA_c128_S0
*1336 ANTENNA_c132_A2
*1337 ANTENNA_c132_B1_N
*1338 ANTENNA_c132_Y
*1339 ANTENNA_c133_B
*1340 ANTENNA_c134_A
*1341 ANTENNA_c134_X
*1342 ANTENNA_c135_A
*1343 ANTENNA_c136_A2
*1344 ANTENNA_c136_B1
*1345 ANTENNA_c137_A2
*1346 ANTENNA_c137_B1_N
*1347 ANTENNA_c138_B1
*1348 ANTENNA_c139_B
*1349 ANTENNA_c140_A2
*1350 ANTENNA_c140_B1
*1351 ANTENNA_c141_A2
*1352 ANTENNA_c142_A1
*1353 ANTENNA_c143_Y
*1354 ANTENNA_c144_A1
*1355 ANTENNA_c145_A2
*1356 ANTENNA_c147_B1_N
*1357 ANTENNA_c148_B1_N
*1358 ANTENNA_c149_A3
*1359 ANTENNA_c151_S1
*1360 ANTENNA_c153_X
*1361 ANTENNA_c154_A1
*1362 ANTENNA_c154_A2
*1363 ANTENNA_c154_B1
*1364 ANTENNA_c154_Y
*1365 ANTENNA_c155_A2
*1366 ANTENNA_c155_Y
*1367 ANTENNA_c156_A1
*1368 ANTENNA_c156_S
*1369 ANTENNA_c156_X
*1370 ANTENNA_c157_A2
*1371 ANTENNA_c157_A3
*1372 ANTENNA_c157_B1
*1373 ANTENNA_c158_B1_N
*1374 ANTENNA_c159_A1
*1375 ANTENNA_c159_Y
*1376 ANTENNA_c161_A2
*1377 ANTENNA_c162_A2
*1378 ANTENNA_c162_A3
*1379 ANTENNA_c162_Y
*1380 ANTENNA_c163_A1
*1381 ANTENNA_c164_B1
*1382 ANTENNA_c164_X
*1383 ANTENNA_c165_A2
*1384 ANTENNA_c165_A3
*1385 ANTENNA_c165_B1
*1386 ANTENNA_c166_A2
*1387 ANTENNA_c166_B1
*1388 ANTENNA_c167_A2
*1389 ANTENNA_c167_A4
*1390 ANTENNA_c167_B1
*1391 ANTENNA_c168_S1
*1392 ANTENNA_c168_X
*1393 ANTENNA_c169_A3
*1394 ANTENNA_c169_B1
*1395 ANTENNA_c170_A1
*1396 ANTENNA_c170_S0
*1397 ANTENNA_c170_S1
*1398 ANTENNA_c171_A1
*1399 ANTENNA_c171_A2
*1400 ANTENNA_c171_B1_N
*1401 ANTENNA_c172_A3
*1402 ANTENNA_c172_S0
*1403 ANTENNA_c173_A2
*1404 ANTENNA_c173_S1
*1405 ANTENNA_c174_A3
*1406 ANTENNA_c174_B1
*1407 ANTENNA_c175_S
*1408 ANTENNA_c175_X
*1409 ANTENNA_c176_A2
*1410 ANTENNA_c176_B1_N
*1411 ANTENNA_c177_B1
*1412 ANTENNA_c178_B1
*1413 ANTENNA_c179_A2
*1414 ANTENNA_c179_A4
*1415 ANTENNA_c179_B1
*1416 ANTENNA_c179_Y
*1417 ANTENNA_c180_B1
*1418 ANTENNA_c181_A1
*1419 ANTENNA_c181_A3
*1420 ANTENNA_c181_B1
*1421 ANTENNA_c182_A2
*1422 ANTENNA_c182_A3
*1423 ANTENNA_c182_A4
*1424 ANTENNA_c182_X
*1425 ANTENNA_c183_B1
*1426 ANTENNA_c184_A2
*1427 ANTENNA_c184_X
*1428 ANTENNA_c185_B1
*1429 ANTENNA_c186_A1
*1430 ANTENNA_c186_A4
*1431 ANTENNA_c186_B1
*1432 ANTENNA_c187_A4
*1433 ANTENNA_c187_B1
*1434 ANTENNA_c188_A3
*1435 ANTENNA_c188_S0
*1436 ANTENNA_c188_S1
*1437 ANTENNA_c189_A2
*1438 ANTENNA_c189_A3
*1439 ANTENNA_c189_A4
*1440 ANTENNA_c190_A2
*1441 ANTENNA_c191_A0
*1442 ANTENNA_c192_A2
*1443 ANTENNA_c193_A1
*1444 ANTENNA_c194_A1
*1445 ANTENNA_c194_A2
*1446 ANTENNA_c194_A3
*1447 ANTENNA_c195_A1
*1448 ANTENNA_c195_A3
*1449 ANTENNA_c195_S0
*1450 ANTENNA_c195_S1
*1451 ANTENNA_c196_A4
*1452 ANTENNA_c197_A1
*1453 ANTENNA_c197_S0
*1454 ANTENNA_c198_A2
*1455 ANTENNA_c199_A1
*1456 ANTENNA_c199_S
*1457 ANTENNA_c200_A2
*1458 ANTENNA_c200_A3
*1459 ANTENNA_c201_B1
*1460 ANTENNA_c201_X
*1461 ANTENNA_c202_A2
*1462 ANTENNA_c203_A2
*1463 ANTENNA_c204_A3
*1464 ANTENNA_c204_X
*1465 ANTENNA_c206_A2
*1466 ANTENNA_c207_A2
*1467 ANTENNA_c209_A2
*1468 ANTENNA_c209_S1
*1469 ANTENNA_c209_X
*1470 ANTENNA_c210_A1
*1471 ANTENNA_c210_X
*1472 ANTENNA_c211_B1_N
*1473 ANTENNA_c212_A3
*1474 ANTENNA_c212_A4
*1475 ANTENNA_c213_B1_N
*1476 ANTENNA_c214_S0
*1477 ANTENNA_c214_S1
*1478 ANTENNA_c215_A1
*1479 ANTENNA_c215_A2
*1480 ANTENNA_c215_S0
*1481 ANTENNA_c215_X
*1482 ANTENNA_c217_A3
*1483 ANTENNA_c217_A4
*1484 ANTENNA_c218_A2
*1485 ANTENNA_c218_A3
*1486 ANTENNA_c218_S0
*1487 ANTENNA_c218_S1
*1488 ANTENNA_c219_A3
*1489 ANTENNA_c219_S0
*1490 ANTENNA_c219_S1
*1491 ANTENNA_c220_A1
*1492 ANTENNA_c221_Y
*1493 ANTENNA_c222_A1
*1494 ANTENNA_c222_B1
*1495 ANTENNA_c223_A3
*1496 ANTENNA_c223_S1
*1497 ANTENNA_c224_B1
*1498 ANTENNA_c225_B1_N
*1499 ANTENNA_c225_Y
*1500 ANTENNA_c227_A2
*1501 ANTENNA_c227_A3
*1502 ANTENNA_c228_B1
*1503 ANTENNA_c228_X
*1504 ANTENNA_c229_A3
*1505 ANTENNA_c230_A2
*1506 ANTENNA_c231_B1
*1507 ANTENNA_c232_X
*1508 ANTENNA_c233_A3
*1509 ANTENNA_c233_Y
*1510 ANTENNA_c235_A1
*1511 ANTENNA_c236_A3
*1512 ANTENNA_c236_X
*1513 ANTENNA_c237_A1
*1514 ANTENNA_c238_A3
*1515 ANTENNA_c238_S0
*1516 ANTENNA_c239_A1
*1517 ANTENNA_c239_A3
*1518 ANTENNA_c240_A2
*1519 ANTENNA_c240_A3
*1520 ANTENNA_c241_S0
*1521 ANTENNA_c264_A2
*1522 ANTENNA_c265_A2
*1523 ANTENNA_c265_X
*1524 ANTENNA_c266_B1
*1525 ANTENNA_c267_Y
*1526 ANTENNA_c268_X
*1527 ANTENNA_c270_A0
*1528 ANTENNA_c270_A1
*1529 ANTENNA_c270_S
*1530 ANTENNA_c271_A2
*1531 ANTENNA_c271_B1_N
*1532 ANTENNA_c272_A2
*1533 ANTENNA_c272_B1_N
*1534 ANTENNA_c272_Y
*1535 ANTENNA_c273_A2
*1536 ANTENNA_c274_Y
*1537 ANTENNA_c275_A
*1538 ANTENNA_c275_B
*1539 ANTENNA_c276_A2
*1540 ANTENNA_c276_Y
*1541 ANTENNA_c277_A1
*1542 ANTENNA_c277_B1_N
*1543 ANTENNA_c277_X
*1544 ANTENNA_c278_A1
*1545 ANTENNA_c278_A2
*1546 ANTENNA_c278_A3
*1547 ANTENNA_c278_X
*1548 ANTENNA_c279_A2
*1549 ANTENNA_c279_Y
*1550 ANTENNA_c280_A0
*1551 ANTENNA_c280_A1
*1552 ANTENNA_c281_A1
*1553 ANTENNA_c281_A2
*1554 ANTENNA_c281_S0
*1555 ANTENNA_c281_S1
*1556 ANTENNA_c281_X
*1557 ANTENNA_c282_A1
*1558 ANTENNA_c282_B1_N
*1559 ANTENNA_c282_Y
*1560 ANTENNA_c283_A1
*1561 ANTENNA_c283_A2
*1562 ANTENNA_c283_A3
*1563 ANTENNA_c284_A1
*1564 ANTENNA_c284_A3
*1565 ANTENNA_c284_A4
*1566 ANTENNA_c285_A2
*1567 ANTENNA_c285_B1
*1568 ANTENNA_c285_X
*1569 ANTENNA_c286_B1
*1570 ANTENNA_c287_A1
*1571 ANTENNA_c287_A2
*1572 ANTENNA_c287_B1
*1573 ANTENNA_c287_Y
*1574 ANTENNA_c288_B1
*1575 ANTENNA_c288_Y
*1576 ANTENNA_c289_X
*1577 ANTENNA_c290_A1
*1578 ANTENNA_c290_A2
*1579 ANTENNA_c290_Y
*1580 ANTENNA_c291_A1
*1581 ANTENNA_c291_A2
*1582 ANTENNA_c291_B1_N
*1583 ANTENNA_c291_Y
*1584 ANTENNA_c292_A2
*1585 ANTENNA_c292_B1_N
*1586 ANTENNA_c292_X
*1587 ANTENNA_c293_X
*1588 ANTENNA_c294_CLK_N
*1589 ANTENNA_c294_D
*1590 ANTENNA_c294_Q
*1591 ANTENNA_c294_RESET_B
*1592 ANTENNA_c294_SCD
*1593 ANTENNA_c294_SCE
*1594 ANTENNA_c294_SET_B
*1595 ANTENNA_c295_A2
*1596 ANTENNA_c296_B1
*1597 ANTENNA_c298_A1
*1598 ANTENNA_c298_A2
*1599 ANTENNA_c299_A2
*1600 ANTENNA_c299_A3
*1601 ANTENNA_c299_B1
*1602 ANTENNA_c301_A3
*1603 ANTENNA_c301_A4
*1604 ANTENNA_c302_CLK_N
*1605 ANTENNA_c302_Q
*1606 ANTENNA_c302_Q_N
*1607 ANTENNA_c302_RESET_B
*1608 ANTENNA_c302_SCD
*1609 ANTENNA_c302_SCE
*1610 ANTENNA_c303_A2
*1611 ANTENNA_c303_A3
*1612 ANTENNA_c304_A3
*1613 ANTENNA_c304_S1
*1614 ANTENNA_c305_A2
*1615 ANTENNA_c306_A2
*1616 ANTENNA_c306_X
*1617 ANTENNA_c307_A1
*1618 ANTENNA_c307_A3
*1619 ANTENNA_c309_A2
*1620 ANTENNA_c309_B1
*1621 ANTENNA_c310_A2
*1622 ANTENNA_c310_B1_N
*1623 ANTENNA_c311_A1
*1624 ANTENNA_c313_A2
*1625 ANTENNA_c313_B1
*1626 ANTENNA_c314_A3
*1627 ANTENNA_c314_B1
*1628 ANTENNA_c314_X
*1629 ANTENNA_c315_A
*1630 ANTENNA_c315_B
*1631 ANTENNA_c316_B1_N
*1632 ANTENNA_c317_X
*1633 ANTENNA_c318_A2
*1634 ANTENNA_c318_B1_N
*1635 ANTENNA_c320_X
*1636 ANTENNA_c321_CLK
*1637 ANTENNA_c321_Q
*1638 ANTENNA_c321_Q_N
*1639 ANTENNA_c321_SCE
*1640 ANTENNA_c321_SET_B
*1641 ANTENNA_c324_X
*1642 ANTENNA_c325_Y
*1643 ANTENNA_c326_A3
*1644 ANTENNA_c327_A2
*1645 ANTENNA_c327_A3
*1646 ANTENNA_c327_B1
*1647 ANTENNA_c328_A3
*1648 ANTENNA_c328_B1
*1649 ANTENNA_c329_A2
*1650 ANTENNA_c329_S0
*1651 ANTENNA_c329_S1
*1652 ANTENNA_c330_A1
*1653 ANTENNA_c330_A2
*1654 ANTENNA_c330_A3
*1655 ANTENNA_c330_B1
*1656 ANTENNA_c332_A1
*1657 ANTENNA_c332_A2
*1658 ANTENNA_c333_CLK_N
*1659 ANTENNA_c333_SCD
*1660 ANTENNA_c333_SCE
*1661 ANTENNA_c334_A2
*1662 ANTENNA_c334_A4
*1663 ANTENNA_c335_B1_N
*1664 ANTENNA_c337_A1
*1665 ANTENNA_c337_A2
*1666 ANTENNA_c337_X
*1667 ANTENNA_c338_A1
*1668 ANTENNA_c338_A2
*1669 ANTENNA_c338_S1
*1670 ANTENNA_c339_A0
*1671 ANTENNA_c339_S1
*1672 ANTENNA_c340_A1
*1673 ANTENNA_c340_Y
*1674 ANTENNA_c341_A4
*1675 ANTENNA_c341_B1
*1676 ANTENNA_c342_A1
*1677 ANTENNA_c342_A2
*1678 ANTENNA_c342_A3
*1679 ANTENNA_c342_X
*1680 ANTENNA_c343_D
*1681 ANTENNA_c343_SCD
*1682 ANTENNA_c344_S0
*1683 ANTENNA_c344_S1
*1684 ANTENNA_c344_X
*1685 ANTENNA_c346_CLK
*1686 ANTENNA_c346_RESET_B
*1687 ANTENNA_c346_SCD
*1688 ANTENNA_c346_SCE
*1689 ANTENNA_c347_A2
*1690 ANTENNA_c347_A4
*1691 ANTENNA_c348_A0
*1692 ANTENNA_c348_A2
*1693 ANTENNA_c349_A0
*1694 ANTENNA_c349_A3
*1695 ANTENNA_c350_A2
*1696 ANTENNA_c351_A1
*1697 ANTENNA_c351_A2
*1698 ANTENNA_c352_A1
*1699 ANTENNA_c352_A2
*1700 ANTENNA_c352_A4
*1701 ANTENNA_c352_B1
*1702 ANTENNA_c353_A1
*1703 ANTENNA_c353_A2
*1704 ANTENNA_c353_A3
*1705 ANTENNA_c353_B1
*1706 ANTENNA_c354_A1
*1707 ANTENNA_c354_A2
*1708 ANTENNA_c354_A3
*1709 ANTENNA_c354_B1
*1710 ANTENNA_c354_X
*1711 ANTENNA_c355_A1
*1712 ANTENNA_c355_A3
*1713 ANTENNA_c356_A1
*1714 ANTENNA_c356_A2
*1715 ANTENNA_c357_A1
*1716 ANTENNA_c357_A3
*1717 ANTENNA_c357_S1
*1718 ANTENNA_c358_A0
*1719 ANTENNA_c358_A1
*1720 ANTENNA_c358_A2
*1721 ANTENNA_c358_A3
*1722 ANTENNA_c358_S0
*1723 ANTENNA_c359_A2
*1724 ANTENNA_c360_A0
*1725 ANTENNA_c360_A1
*1726 ANTENNA_c360_A2
*1727 ANTENNA_c360_S0
*1728 ANTENNA_c360_S1
*1729 ANTENNA_c361_A0
*1730 ANTENNA_c361_A1
*1731 ANTENNA_c361_A3
*1732 ANTENNA_c362_A1
*1733 ANTENNA_c362_A2
*1734 ANTENNA_c362_A3
*1735 ANTENNA_c363_A2
*1736 ANTENNA_c363_A3
*1737 ANTENNA_c364_A1
*1738 ANTENNA_c364_A2
*1739 ANTENNA_c365_A1
*1740 ANTENNA_c365_A2
*1741 ANTENNA_c365_A3
*1742 ANTENNA_c365_S0
*1743 ANTENNA_c365_S1
*1744 ANTENNA_c366_A1
*1745 ANTENNA_c366_S0
*1746 ANTENNA_c367_A1
*1747 ANTENNA_c367_A2
*1748 ANTENNA_c367_A3
*1749 ANTENNA_c367_S0
*1750 ANTENNA_c367_S1
*1751 ANTENNA_c368_A1
*1752 ANTENNA_c368_A2
*1753 ANTENNA_c369_CLK_N
*1754 ANTENNA_c369_SCD
*1755 ANTENNA_c369_SCE
*1756 ANTENNA_c370_A1
*1757 ANTENNA_c370_A2
*1758 ANTENNA_c370_A3
*1759 ANTENNA_c370_S0
*1760 ANTENNA_c372_A2
*1761 ANTENNA_c372_S1
*1762 ANTENNA_c373_A2
*1763 ANTENNA_c373_A3
*1764 ANTENNA_c373_S1
*1765 ANTENNA_c396_A
*1766 ANTENNA_c396_B
*1767 ANTENNA_c398_A2
*1768 ANTENNA_c398_B1_N
*1769 ANTENNA_c399_B
*1770 ANTENNA_c399_Y
*1771 ANTENNA_c400_A1
*1772 ANTENNA_c400_S
*1773 ANTENNA_c401_Y
*1774 ANTENNA_c402_A1
*1775 ANTENNA_c402_B1_N
*1776 ANTENNA_c403_B1_N
*1777 ANTENNA_c404_A1
*1778 ANTENNA_c404_X
*1779 ANTENNA_c406_A1
*1780 ANTENNA_c406_A2
*1781 ANTENNA_c406_B1
*1782 ANTENNA_c406_X
*1783 ANTENNA_c407_A
*1784 ANTENNA_c407_Y
*1785 ANTENNA_c408_A2
*1786 ANTENNA_c408_X
*1787 ANTENNA_c409_A0
*1788 ANTENNA_c409_A3
*1789 ANTENNA_c409_S1
*1790 ANTENNA_c410_X
*1791 ANTENNA_c411_A2
*1792 ANTENNA_c411_B1_N
*1793 ANTENNA_c413_A1
*1794 ANTENNA_c413_A3
*1795 ANTENNA_c413_S1
*1796 ANTENNA_c413_X
*1797 ANTENNA_c414_A0
*1798 ANTENNA_c414_A2
*1799 ANTENNA_c414_A3
*1800 ANTENNA_c414_S1
*1801 ANTENNA_c415_CLK_N
*1802 ANTENNA_c415_RESET_B
*1803 ANTENNA_c415_SCE
*1804 ANTENNA_c416_A2
*1805 ANTENNA_c416_A3
*1806 ANTENNA_c416_S0
*1807 ANTENNA_c416_S1
*1808 ANTENNA_c418_X
*1809 ANTENNA_c419_CLK
*1810 ANTENNA_c419_SCD
*1811 ANTENNA_c419_SET_B
*1812 ANTENNA_c420_X
*1813 ANTENNA_c421_A1
*1814 ANTENNA_c421_B1
*1815 ANTENNA_c422_A1
*1816 ANTENNA_c422_B1_N
*1817 ANTENNA_c423_A1
*1818 ANTENNA_c423_B1_N
*1819 ANTENNA_c423_Y
*1820 ANTENNA_c424_B
*1821 ANTENNA_c425_B
*1822 ANTENNA_c427_A1
*1823 ANTENNA_c427_A3
*1824 ANTENNA_c427_Y
*1825 ANTENNA_c432_B1
*1826 ANTENNA_c433_X
*1827 ANTENNA_c434_Y
*1828 ANTENNA_c435_A1
*1829 ANTENNA_c435_A2
*1830 ANTENNA_c435_A3
*1831 ANTENNA_c436_A1
*1832 ANTENNA_c436_B1
*1833 ANTENNA_c437_S1
*1834 ANTENNA_c438_B1
*1835 ANTENNA_c440_CLK
*1836 ANTENNA_c440_D
*1837 ANTENNA_c440_SCD
*1838 ANTENNA_c440_SCE
*1839 ANTENNA_c441_B1_N
*1840 ANTENNA_c442_CLK
*1841 ANTENNA_c442_RESET_B
*1842 ANTENNA_c442_SCD
*1843 ANTENNA_c442_SCE
*1844 ANTENNA_c443_A2
*1845 ANTENNA_c443_X
*1846 ANTENNA_c445_CLK_N
*1847 ANTENNA_c445_D
*1848 ANTENNA_c445_RESET_B
*1849 ANTENNA_c445_SCD
*1850 ANTENNA_c445_SCE
*1851 ANTENNA_c446_CLK
*1852 ANTENNA_c446_SCD
*1853 ANTENNA_c446_SCE
*1854 ANTENNA_c447_A3
*1855 ANTENNA_c447_B1
*1856 ANTENNA_c447_Y
*1857 ANTENNA_c448_A2
*1858 ANTENNA_c448_A4
*1859 ANTENNA_c448_B1
*1860 ANTENNA_c449_A1
*1861 ANTENNA_c449_A3