*SPEF "ieee 1481-1999"
*DESIGN "high_level_0"
*DATE "11:11:11 Fri 11 11, 1111"
*VENDOR "OpenRCX"
*PROGRAM "Parallel Extraction"
*VERSION "1.0"
*DESIGN_FLOW "NAME_SCOPE LOCAL" "PIN_CAP NONE"
*DIVIDER /
*DELIMITER :
*BUS_DELIMITER []
*T_UNIT 1 NS
*C_UNIT 1 PF
*R_UNIT 1 OHM
*L_UNIT 1 HENRY

*NAME_MAP
*3 in0
*4 in1
*5 in2
*6 in3
*7 in4
*8 in5
*9 in6
*10 in7
*11 in8
*12 in9
*13 out0
*14 out1
*15 out2
*16 out3
*17 out4
*18 net0
*19 net1
*20 net10
*21 net11
*22 net12
*23 net13
*24 net14
*25 net15
*26 net16
*27 net17
*28 net18
*29 net19
*30 net2
*31 net3
*32 net4
*33 net5
*34 net6
*35 net7
*36 net8
*37 net9
*38 FILLER_0_104
*39 FILLER_0_113
*40 FILLER_0_125
*41 FILLER_0_137
*42 FILLER_0_141
*43 FILLER_0_153
*44 FILLER_0_166
*45 FILLER_0_169
*46 FILLER_0_181
*47 FILLER_0_188
*48 FILLER_0_20
*49 FILLER_0_29
*50 FILLER_0_3
*51 FILLER_0_41
*52 FILLER_0_54
*53 FILLER_0_57
*54 FILLER_0_69
*55 FILLER_0_8
*56 FILLER_0_81
*57 FILLER_0_85
*58 FILLER_0_97
*59 FILLER_10_109
*60 FILLER_10_121
*61 FILLER_10_133
*62 FILLER_10_139
*63 FILLER_10_141
*64 FILLER_10_15
*65 FILLER_10_153
*66 FILLER_10_165
*67 FILLER_10_177
*68 FILLER_10_189
*69 FILLER_10_27
*70 FILLER_10_29
*71 FILLER_10_3
*72 FILLER_10_41
*73 FILLER_10_53
*74 FILLER_10_65
*75 FILLER_10_77
*76 FILLER_10_83
*77 FILLER_10_85
*78 FILLER_10_97
*79 FILLER_11_105
*80 FILLER_11_111
*81 FILLER_11_113
*82 FILLER_11_125
*83 FILLER_11_137
*84 FILLER_11_149
*85 FILLER_11_15
*86 FILLER_11_161
*87 FILLER_11_167
*88 FILLER_11_169
*89 FILLER_11_181
*90 FILLER_11_189
*91 FILLER_11_27
*92 FILLER_11_3
*93 FILLER_11_39
*94 FILLER_11_51
*95 FILLER_11_55
*96 FILLER_11_57
*97 FILLER_11_69
*98 FILLER_11_81
*99 FILLER_11_93
*100 FILLER_12_109
*101 FILLER_12_121
*102 FILLER_12_133
*103 FILLER_12_139
*104 FILLER_12_141
*105 FILLER_12_15
*106 FILLER_12_153
*107 FILLER_12_165
*108 FILLER_12_177
*109 FILLER_12_189
*110 FILLER_12_27
*111 FILLER_12_29
*112 FILLER_12_3
*113 FILLER_12_41
*114 FILLER_12_53
*115 FILLER_12_65
*116 FILLER_12_77
*117 FILLER_12_83
*118 FILLER_12_85
*119 FILLER_12_97
*120 FILLER_13_105
*121 FILLER_13_111
*122 FILLER_13_113
*123 FILLER_13_125
*124 FILLER_13_137
*125 FILLER_13_149
*126 FILLER_13_15
*127 FILLER_13_161
*128 FILLER_13_167
*129 FILLER_13_169
*130 FILLER_13_181
*131 FILLER_13_189
*132 FILLER_13_27
*133 FILLER_13_3
*134 FILLER_13_39
*135 FILLER_13_51
*136 FILLER_13_55
*137 FILLER_13_57
*138 FILLER_13_69
*139 FILLER_13_81
*140 FILLER_13_85
*141 FILLER_13_93
*142 FILLER_14_102
*143 FILLER_14_110
*144 FILLER_14_122
*145 FILLER_14_134
*146 FILLER_14_141
*147 FILLER_14_15
*148 FILLER_14_153
*149 FILLER_14_165
*150 FILLER_14_177
*151 FILLER_14_189
*152 FILLER_14_27
*153 FILLER_14_29
*154 FILLER_14_3
*155 FILLER_14_41
*156 FILLER_14_53
*157 FILLER_14_65
*158 FILLER_14_77
*159 FILLER_14_83
*160 FILLER_14_85
*161 FILLER_14_96
*162 FILLER_15_110
*163 FILLER_15_113
*164 FILLER_15_122
*165 FILLER_15_134
*166 FILLER_15_146
*167 FILLER_15_15
*168 FILLER_15_158
*169 FILLER_15_166
*170 FILLER_15_169
*171 FILLER_15_181
*172 FILLER_15_189
*173 FILLER_15_27
*174 FILLER_15_3
*175 FILLER_15_39
*176 FILLER_15_51
*177 FILLER_15_55
*178 FILLER_15_57
*179 FILLER_15_69
*180 FILLER_15_77
*181 FILLER_15_88
*182 FILLER_15_99
*183 FILLER_16_104
*184 FILLER_16_112
*185 FILLER_16_124
*186 FILLER_16_136
*187 FILLER_16_141
*188 FILLER_16_15
*189 FILLER_16_153
*190 FILLER_16_165
*191 FILLER_16_177
*192 FILLER_16_189
*193 FILLER_16_27
*194 FILLER_16_29
*195 FILLER_16_3
*196 FILLER_16_41
*197 FILLER_16_53
*198 FILLER_16_65
*199 FILLER_16_77
*200 FILLER_16_83
*201 FILLER_16_85
*202 FILLER_16_96
*203 FILLER_17_105
*204 FILLER_17_111
*205 FILLER_17_113
*206 FILLER_17_125
*207 FILLER_17_137
*208 FILLER_17_149
*209 FILLER_17_15
*210 FILLER_17_161
*211 FILLER_17_167
*212 FILLER_17_169
*213 FILLER_17_181
*214 FILLER_17_188
*215 FILLER_17_27
*216 FILLER_17_3
*217 FILLER_17_39
*218 FILLER_17_51
*219 FILLER_17_55
*220 FILLER_17_57
*221 FILLER_17_69
*222 FILLER_17_81
*223 FILLER_17_93
*224 FILLER_18_109
*225 FILLER_18_121
*226 FILLER_18_133
*227 FILLER_18_139
*228 FILLER_18_141
*229 FILLER_18_15
*230 FILLER_18_153
*231 FILLER_18_165
*232 FILLER_18_177
*233 FILLER_18_189
*234 FILLER_18_27
*235 FILLER_18_29
*236 FILLER_18_3
*237 FILLER_18_41
*238 FILLER_18_53
*239 FILLER_18_65
*240 FILLER_18_77
*241 FILLER_18_83
*242 FILLER_18_85
*243 FILLER_18_97
*244 FILLER_19_105
*245 FILLER_19_111
*246 FILLER_19_113
*247 FILLER_19_125
*248 FILLER_19_137
*249 FILLER_19_149
*250 FILLER_19_15
*251 FILLER_19_161
*252 FILLER_19_167
*253 FILLER_19_169
*254 FILLER_19_181
*255 FILLER_19_189
*256 FILLER_19_27
*257 FILLER_19_3
*258 FILLER_19_39
*259 FILLER_19_51
*260 FILLER_19_55
*261 FILLER_19_57
*262 FILLER_19_69
*263 FILLER_19_81
*264 FILLER_19_93
*265 FILLER_1_105
*266 FILLER_1_111
*267 FILLER_1_113
*268 FILLER_1_125
*269 FILLER_1_137
*270 FILLER_1_149
*271 FILLER_1_15
*272 FILLER_1_161
*273 FILLER_1_167
*274 FILLER_1_169
*275 FILLER_1_181
*276 FILLER_1_189
*277 FILLER_1_27
*278 FILLER_1_3
*279 FILLER_1_39
*280 FILLER_1_51
*281 FILLER_1_55
*282 FILLER_1_57
*283 FILLER_1_69
*284 FILLER_1_81
*285 FILLER_1_93
*286 FILLER_20_109
*287 FILLER_20_121
*288 FILLER_20_133
*289 FILLER_20_139
*290 FILLER_20_141
*291 FILLER_20_15
*292 FILLER_20_153
*293 FILLER_20_165
*294 FILLER_20_177
*295 FILLER_20_189
*296 FILLER_20_27
*297 FILLER_20_29
*298 FILLER_20_3
*299 FILLER_20_41
*300 FILLER_20_53
*301 FILLER_20_65
*302 FILLER_20_77
*303 FILLER_20_83
*304 FILLER_20_85
*305 FILLER_20_97
*306 FILLER_21_105
*307 FILLER_21_111
*308 FILLER_21_113
*309 FILLER_21_125
*310 FILLER_21_137
*311 FILLER_21_149
*312 FILLER_21_15
*313 FILLER_21_161
*314 FILLER_21_167
*315 FILLER_21_169
*316 FILLER_21_181
*317 FILLER_21_189
*318 FILLER_21_27
*319 FILLER_21_3
*320 FILLER_21_39
*321 FILLER_21_51
*322 FILLER_21_55
*323 FILLER_21_57
*324 FILLER_21_69
*325 FILLER_21_81
*326 FILLER_21_93
*327 FILLER_22_109
*328 FILLER_22_121
*329 FILLER_22_133
*330 FILLER_22_139
*331 FILLER_22_141
*332 FILLER_22_15
*333 FILLER_22_153
*334 FILLER_22_165
*335 FILLER_22_177
*336 FILLER_22_189
*337 FILLER_22_27
*338 FILLER_22_29
*339 FILLER_22_3
*340 FILLER_22_41
*341 FILLER_22_53
*342 FILLER_22_65
*343 FILLER_22_77
*344 FILLER_22_83
*345 FILLER_22_85
*346 FILLER_22_97
*347 FILLER_23_105
*348 FILLER_23_111
*349 FILLER_23_113
*350 FILLER_23_125
*351 FILLER_23_137
*352 FILLER_23_149
*353 FILLER_23_15
*354 FILLER_23_161
*355 FILLER_23_167
*356 FILLER_23_169
*357 FILLER_23_181
*358 FILLER_23_189
*359 FILLER_23_27
*360 FILLER_23_3
*361 FILLER_23_39
*362 FILLER_23_51
*363 FILLER_23_55
*364 FILLER_23_57
*365 FILLER_23_69
*366 FILLER_23_81
*367 FILLER_23_93
*368 FILLER_24_109
*369 FILLER_24_121
*370 FILLER_24_133
*371 FILLER_24_139
*372 FILLER_24_141
*373 FILLER_24_15
*374 FILLER_24_153
*375 FILLER_24_165
*376 FILLER_24_177
*377 FILLER_24_189
*378 FILLER_24_27
*379 FILLER_24_29
*380 FILLER_24_3
*381 FILLER_24_41
*382 FILLER_24_53
*383 FILLER_24_65
*384 FILLER_24_77
*385 FILLER_24_83
*386 FILLER_24_85
*387 FILLER_24_97
*388 FILLER_25_105
*389 FILLER_25_111
*390 FILLER_25_113
*391 FILLER_25_125
*392 FILLER_25_137
*393 FILLER_25_149
*394 FILLER_25_15
*395 FILLER_25_161
*396 FILLER_25_167
*397 FILLER_25_169
*398 FILLER_25_181
*399 FILLER_25_189
*400 FILLER_25_27
*401 FILLER_25_3
*402 FILLER_25_39
*403 FILLER_25_51
*404 FILLER_25_55
*405 FILLER_25_57
*406 FILLER_25_69
*407 FILLER_25_81
*408 FILLER_25_93
*409 FILLER_26_109
*410 FILLER_26_121
*411 FILLER_26_133
*412 FILLER_26_139
*413 FILLER_26_141
*414 FILLER_26_153
*415 FILLER_26_165
*416 FILLER_26_177
*417 FILLER_26_189
*418 FILLER_26_20
*419 FILLER_26_29
*420 FILLER_26_3
*421 FILLER_26_41
*422 FILLER_26_53
*423 FILLER_26_65
*424 FILLER_26_77
*425 FILLER_26_8
*426 FILLER_26_83
*427 FILLER_26_85
*428 FILLER_26_97
*429 FILLER_27_109
*430 FILLER_27_113
*431 FILLER_27_118
*432 FILLER_27_130
*433 FILLER_27_138
*434 FILLER_27_141
*435 FILLER_27_153
*436 FILLER_27_165
*437 FILLER_27_169
*438 FILLER_27_174
*439 FILLER_27_182
*440 FILLER_27_188
*441 FILLER_27_20
*442 FILLER_27_29
*443 FILLER_27_3
*444 FILLER_27_41
*445 FILLER_27_53
*446 FILLER_27_57
*447 FILLER_27_62
*448 FILLER_27_74
*449 FILLER_27_8
*450 FILLER_27_82
*451 FILLER_27_85
*452 FILLER_27_97
*453 FILLER_2_109
*454 FILLER_2_121
*455 FILLER_2_133
*456 FILLER_2_139
*457 FILLER_2_141
*458 FILLER_2_15
*459 FILLER_2_153
*460 FILLER_2_165
*461 FILLER_2_177
*462 FILLER_2_189
*463 FILLER_2_27
*464 FILLER_2_29
*465 FILLER_2_3
*466 FILLER_2_41
*467 FILLER_2_53
*468 FILLER_2_65
*469 FILLER_2_77
*470 FILLER_2_83
*471 FILLER_2_85
*472 FILLER_2_97
*473 FILLER_3_105
*474 FILLER_3_111
*475 FILLER_3_113
*476 FILLER_3_125
*477 FILLER_3_137
*478 FILLER_3_149
*479 FILLER_3_15
*480 FILLER_3_161
*481 FILLER_3_167
*482 FILLER_3_169
*483 FILLER_3_181
*484 FILLER_3_189
*485 FILLER_3_27
*486 FILLER_3_3
*487 FILLER_3_39
*488 FILLER_3_51
*489 FILLER_3_55
*490 FILLER_3_57
*491 FILLER_3_69
*492 FILLER_3_81
*493 FILLER_3_93
*494 FILLER_4_109
*495 FILLER_4_121
*496 FILLER_4_133
*497 FILLER_4_139
*498 FILLER_4_141
*499 FILLER_4_15
*500 FILLER_4_153
*501 FILLER_4_165
*502 FILLER_4_177
*503 FILLER_4_189
*504 FILLER_4_27
*505 FILLER_4_29
*506 FILLER_4_3
*507 FILLER_4_41
*508 FILLER_4_53
*509 FILLER_4_65
*510 FILLER_4_77
*511 FILLER_4_83
*512 FILLER_4_85
*513 FILLER_4_97
*514 FILLER_5_105
*515 FILLER_5_111
*516 FILLER_5_113
*517 FILLER_5_125
*518 FILLER_5_137
*519 FILLER_5_149
*520 FILLER_5_15
*521 FILLER_5_161
*522 FILLER_5_167
*523 FILLER_5_169
*524 FILLER_5_181
*525 FILLER_5_189
*526 FILLER_5_27
*527 FILLER_5_3
*528 FILLER_5_39
*529 FILLER_5_51
*530 FILLER_5_55
*531 FILLER_5_57
*532 FILLER_5_69
*533 FILLER_5_81
*534 FILLER_5_93
*535 FILLER_6_109
*536 FILLER_6_121
*537 FILLER_6_133
*538 FILLER_6_139
*539 FILLER_6_141
*540 FILLER_6_153
*541 FILLER_6_165
*542 FILLER_6_177
*543 FILLER_6_189
*544 FILLER_6_20
*545 FILLER_6_29
*546 FILLER_6_3
*547 FILLER_6_41
*548 FILLER_6_53
*549 FILLER_6_65
*550 FILLER_6_77
*551 FILLER_6_8
*552 FILLER_6_83
*553 FILLER_6_85
*554 FILLER_6_97
*555 FILLER_7_105
*556 FILLER_7_111
*557 FILLER_7_113
*558 FILLER_7_125
*559 FILLER_7_137
*560 FILLER_7_149
*561 FILLER_7_15
*562 FILLER_7_161
*563 FILLER_7_167
*564 FILLER_7_169
*565 FILLER_7_181
*566 FILLER_7_188
*567 FILLER_7_27
*568 FILLER_7_3
*569 FILLER_7_39
*570 FILLER_7_51
*571 FILLER_7_55
*572 FILLER_7_57
*573 FILLER_7_69
*574 FILLER_7_81
*575 FILLER_7_93
*576 FILLER_8_109
*577 FILLER_8_121
*578 FILLER_8_133
*579 FILLER_8_139
*580 FILLER_8_141
*581 FILLER_8_15
*582 FILLER_8_153
*583 FILLER_8_165
*584 FILLER_8_177
*585 FILLER_8_189
*586 FILLER_8_27
*587 FILLER_8_29
*588 FILLER_8_3
*589 FILLER_8_41
*590 FILLER_8_53
*591 FILLER_8_65
*592 FILLER_8_77
*593 FILLER_8_83
*594 FILLER_8_85
*595 FILLER_8_97
*596 FILLER_9_105
*597 FILLER_9_111
*598 FILLER_9_113
*599 FILLER_9_125
*600 FILLER_9_137
*601 FILLER_9_149
*602 FILLER_9_15
*603 FILLER_9_161
*604 FILLER_9_167
*605 FILLER_9_169
*606 FILLER_9_181
*607 FILLER_9_189
*608 FILLER_9_27
*609 FILLER_9_3
*610 FILLER_9_39
*611 FILLER_9_51
*612 FILLER_9_55
*613 FILLER_9_57
*614 FILLER_9_69
*615 FILLER_9_81
*616 FILLER_9_93
*617 PHY_0
*618 PHY_1
*619 PHY_10
*620 PHY_11
*621 PHY_12
*622 PHY_13
*623 PHY_14
*624 PHY_15
*625 PHY_16
*626 PHY_17
*627 PHY_18
*628 PHY_19
*629 PHY_2
*630 PHY_20
*631 PHY_21
*632 PHY_22
*633 PHY_23
*634 PHY_24
*635 PHY_25
*636 PHY_26
*637 PHY_27
*638 PHY_28
*639 PHY_29
*640 PHY_3
*641 PHY_30
*642 PHY_31
*643 PHY_32
*644 PHY_33
*645 PHY_34
*646 PHY_35
*647 PHY_36
*648 PHY_37
*649 PHY_38
*650 PHY_39
*651 PHY_4
*652 PHY_40
*653 PHY_41
*654 PHY_42
*655 PHY_43
*656 PHY_44
*657 PHY_45
*658 PHY_46
*659 PHY_47
*660 PHY_48
*661 PHY_49
*662 PHY_5
*663 PHY_50
*664 PHY_51
*665 PHY_52
*666 PHY_53
*667 PHY_54
*668 PHY_55
*669 PHY_6
*670 PHY_7
*671 PHY_8
*672 PHY_9
*673 TAP_100
*674 TAP_101
*675 TAP_102
*676 TAP_103
*677 TAP_104
*678 TAP_105
*679 TAP_106
*680 TAP_107
*681 TAP_108
*682 TAP_109
*683 TAP_110
*684 TAP_111
*685 TAP_112
*686 TAP_113
*687 TAP_114
*688 TAP_115
*689 TAP_116
*690 TAP_117
*691 TAP_118
*692 TAP_119
*693 TAP_120
*694 TAP_121
*695 TAP_122
*696 TAP_123
*697 TAP_124
*698 TAP_125
*699 TAP_126
*700 TAP_127
*701 TAP_128
*702 TAP_129
*703 TAP_130
*704 TAP_131
*705 TAP_132
*706 TAP_133
*707 TAP_134
*708 TAP_135
*709 TAP_136
*710 TAP_137
*711 TAP_138
*712 TAP_139
*713 TAP_140
*714 TAP_141
*715 TAP_142
*716 TAP_143
*717 TAP_144
*718 TAP_145
*719 TAP_56
*720 TAP_57
*721 TAP_58
*722 TAP_59
*723 TAP_60
*724 TAP_61
*725 TAP_62
*726 TAP_63
*727 TAP_64
*728 TAP_65
*729 TAP_66
*730 TAP_67
*731 TAP_68
*732 TAP_69
*733 TAP_70
*734 TAP_71
*735 TAP_72
*736 TAP_73
*737 TAP_74
*738 TAP_75
*739 TAP_76
*740 TAP_77
*741 TAP_78
*742 TAP_79
*743 TAP_80
*744 TAP_81
*745 TAP_82
*746 TAP_83
*747 TAP_84
*748 TAP_85
*749 TAP_86
*750 TAP_87
*751 TAP_88
*752 TAP_89
*753 TAP_90
*754 TAP_91
*755 TAP_92
*756 TAP_93
*757 TAP_94
*758 TAP_95
*759 TAP_96
*760 TAP_97
*761 TAP_98
*762 TAP_99
*763 c0
*764 c1
*765 c2
*766 c3
*767 c4
*768 c5
*769 c6
*770 c7
*771 c8
*772 c9
*773 input1
*774 input10
*775 input2
*776 input3
*777 input4
*778 input5
*779 input6
*780 input7
*781 input8
*782 input9
*783 output11
*784 output12
*785 output13
*786 output14
*787 output15

*PORTS
in0 I
in1 I
in2 I
in3 I
in4 I
in5 I
in6 I
in7 I
in8 I
in9 I
out0 O
out1 O
out2 O
out3 O
out4 O

*D_NET *3 0.000627361
*CONN
*P in0 I
*I *773:A I *D sky130_fd_sc_hd__clkbuf_1
*CAP
1 in0 0.00031368
2 *773:A 0.00031368
*RES
1 in0 *773:A 18.6426 
*END

*D_NET *4 0.00101477
*CONN
*P in1 I
*I *775:A I *D sky130_fd_sc_hd__clkbuf_1
*CAP
1 in1 0.000507386
2 *775:A 0.000507386
*RES
1 in1 *775:A 23.6571 
*END

*D_NET *5 0.000759672
*CONN
*P in2 I
*I *776:A I *D sky130_fd_sc_hd__dlymetal6s2s_1
*CAP
1 in2 0.000379836
2 *776:A 0.000379836
*RES
1 in2 *776:A 21.3 
*END

*D_NET *6 0.00119828
*CONN
*P in3 I
*I *777:A I *D sky130_fd_sc_hd__clkbuf_1
*CAP
1 in3 0.000526752
2 *777:A 0.000526752
3 *777:A *783:A 0.000144773
*RES
1 in3 *777:A 24.4786 
*END

*D_NET *7 0.00153193
*CONN
*P in4 I
*I *778:A I *D sky130_fd_sc_hd__clkbuf_1
*CAP
1 in4 0.000765967
2 *778:A 0.000765967
*RES
1 in4 *778:A 28.4071 
*END

*D_NET *8 0.000645846
*CONN
*P in5 I
*I *779:A I *D sky130_fd_sc_hd__dlymetal6s2s_1
*CAP
1 in5 0.000304981
2 *779:A 0.000304981
3 *779:A *786:A 3.58847e-05
*RES
1 in5 *779:A 18.8741 
*END

*D_NET *9 0.000759672
*CONN
*P in6 I
*I *780:A I *D sky130_fd_sc_hd__dlymetal6s2s_1
*CAP
1 in6 0.000379836
2 *780:A 0.000379836
*RES
1 in6 *780:A 21.3 
*END

*D_NET *10 0.00128322
*CONN
*P in7 I
*I *781:A I *D sky130_fd_sc_hd__clkbuf_1
*CAP
1 in7 0.00064161
2 *781:A 0.00064161
*RES
1 in7 *781:A 25.6248 
*END

*D_NET *11 0.000607508
*CONN
*P in8 I
*I *782:A I *D sky130_fd_sc_hd__clkbuf_1
*CAP
1 in8 0.000303754
2 *782:A 0.000303754
*RES
1 in8 *782:A 18.8741 
*END

*D_NET *12 0.000574225
*CONN
*P in9 I
*I *774:A I *D sky130_fd_sc_hd__clkbuf_1
*CAP
1 in9 0.000287113
2 *774:A 0.000287113
*RES
1 in9 *774:A 18.6426 
*END

*D_NET *13 0.00099867
*CONN
*P out0 O
*I *783:X O *D sky130_fd_sc_hd__clkbuf_1
*CAP
1 out0 0.000483902
2 *783:X 0.000483902
3 out0 *783:A 3.08664e-05
*RES
1 *783:X out0 23.05 
*END

*D_NET *14 0.000813571
*CONN
*P out1 O
*I *784:X O *D sky130_fd_sc_hd__clkbuf_1
*CAP
1 out1 0.000403068
2 *784:X 0.000403068
3 out1 *26:23 7.43578e-06
*RES
1 *784:X out1 21.2286 
*END

*D_NET *15 0.000588204
*CONN
*P out2 O
*I *785:X O *D sky130_fd_sc_hd__clkbuf_1
*CAP
1 out2 0.0002893
2 *785:X 0.0002893
3 out2 *786:A 9.60337e-06
*RES
1 *785:X out2 18.267 
*END

*D_NET *16 0.0011192
*CONN
*P out3 O
*I *786:X O *D sky130_fd_sc_hd__clkbuf_1
*CAP
1 out3 0.000559599
2 *786:X 0.000559599
*RES
1 *786:X out3 23.8714 
*END

*D_NET *17 0.000556518
*CONN
*P out4 O
*I *787:X O *D sky130_fd_sc_hd__clkbuf_1
*CAP
1 out4 0.000278259
2 *787:X 0.000278259
3 out4 *22:10 0
*RES
1 *787:X out4 18.3391 
*END

*D_NET *18 0.00206422
*CONN
*I *764:B2 I *D sky130_fd_sc_hd__a2bb2oi_1
*I *765:A2_N I *D sky130_fd_sc_hd__a2bb2oi_1
*I *767:A1_N I *D sky130_fd_sc_hd__a2bb2oi_1
*I *763:Y O *D sky130_fd_sc_hd__a2bb2oi_1
*CAP
1 *764:B2 0.00011064
2 *765:A2_N 0
3 *767:A1_N 0.000127781
4 *763:Y 0.000102185
5 *18:20 0.000136924
6 *18:8 0.00025625
7 *764:B2 *767:A2_N 0.000125547
8 *764:B2 *770:B1 0.000373457
9 *764:B2 *19:5 0.000315158
10 *767:A1_N *767:A2_N 0.000196916
11 *767:A1_N *772:A1_N 5.52302e-05
12 *767:A1_N *24:12 1.36181e-05
13 *18:8 *767:A2_N 4.29696e-05
14 *18:8 *772:B2 5.49995e-05
15 *18:8 *24:12 5.97941e-05
16 *18:8 *36:8 5.54817e-06
17 *18:8 *36:21 3.39036e-05
18 *18:20 *770:B1 5.33005e-05
*RES
1 *763:Y *18:8 15.9786 
2 *18:8 *767:A1_N 16.8893 
3 *18:8 *18:20 5.03571 
4 *18:20 *765:A2_N 9.3 
5 *18:20 *764:B2 13.9607 
*END

*D_NET *19 0.00186597
*CONN
*I *767:A2_N I *D sky130_fd_sc_hd__a2bb2oi_1
*I *765:B2 I *D sky130_fd_sc_hd__a2bb2oi_1
*I *764:Y O *D sky130_fd_sc_hd__a2bb2oi_1
*CAP
1 *767:A2_N 0.000221353
2 *765:B2 0
3 *764:Y 0.000233779
4 *19:5 0.000455133
5 *767:A2_N *25:21 6.8646e-06
6 *767:A2_N *36:21 0.00023792
7 *19:5 *770:B1 3.03304e-05
8 *764:B2 *767:A2_N 0.000125547
9 *764:B2 *19:5 0.000315158
10 *767:A1_N *767:A2_N 0.000196916
11 *18:8 *767:A2_N 4.29696e-05
*RES
1 *764:Y *19:5 12.7107 
2 *19:5 *765:B2 9.3 
3 *19:5 *767:A2_N 23.1214 
*END

*D_NET *20 0.0072259
*CONN
*I *770:A2_N I *D sky130_fd_sc_hd__a2bb2oi_1
*I *772:B2 I *D sky130_fd_sc_hd__a2bb2oi_1
*I *764:A1_N I *D sky130_fd_sc_hd__a2bb2oi_1
*I *768:B2 I *D sky130_fd_sc_hd__a2bb2oi_1
*I *779:X O *D sky130_fd_sc_hd__dlymetal6s2s_1
*CAP
1 *770:A2_N 0.000157915
2 *772:B2 0.000832596
3 *764:A1_N 8.27325e-05
4 *768:B2 0
5 *779:X 0.00183527
6 *20:15 0.000950265
7 *20:9 0.000246275
8 *20:5 0.00220452
9 *764:A1_N *764:A2_N 5.71472e-05
10 *764:A1_N *768:B1 2.82543e-05
11 *764:A1_N *770:B1 5.52302e-05
12 *764:A1_N *21:22 2.84398e-05
13 *764:A1_N *26:11 7.45717e-05
14 *770:A2_N *768:B1 0
15 *772:B2 *763:B1 9.87503e-05
16 *772:B2 *768:A1_N 0.000196189
17 *772:B2 *768:A2_N 2.59355e-05
18 *772:B2 *772:B1 0.000227775
19 *772:B2 *26:11 1.40305e-05
20 *20:9 *768:B1 5.50052e-05
21 *18:8 *772:B2 5.49995e-05
*RES
1 *779:X *20:5 40.2286 
2 *20:5 *20:9 3.42857 
3 *20:9 *768:B2 9.3 
4 *20:9 *20:15 0.535714 
5 *20:15 *764:A1_N 20.7821 
6 *20:15 *772:B2 31.3893 
7 *20:5 *770:A2_N 20.55 
*END

*D_NET *21 0.00853031
*CONN
*I *770:B2 I *D sky130_fd_sc_hd__a2bb2oi_1
*I *769:B1 I *D sky130_fd_sc_hd__a2bb2oi_1
*I *766:B2 I *D sky130_fd_sc_hd__a2bb2oi_1
*I *780:X O *D sky130_fd_sc_hd__dlymetal6s2s_1
*CAP
1 *770:B2 0
2 *769:B1 0.000353484
3 *766:B2 0
4 *780:X 0.000723413
5 *21:22 0.000733686
6 *21:8 0.00170305
7 *21:7 0.00204626
8 *769:B1 *764:A2_N 0.000159007
9 *769:B1 *769:A1_N 5.20669e-05
10 *769:B1 *769:B2 5.65955e-05
11 *769:B1 *770:A1_N 0.00012613
12 *769:B1 *770:B1 1.04232e-05
13 *769:B1 *27:10 2.36643e-05
14 *21:7 *37:7 0.000999932
15 *21:8 *766:B1 3.51442e-05
16 *21:8 *768:B1 1.41706e-05
17 *21:8 *26:23 0
18 *21:8 *37:8 0.000892322
19 *21:22 *764:A2_N 7.49387e-06
20 *21:22 *766:B1 7.63389e-05
21 *21:22 *768:B1 0.000392603
22 *21:22 *770:B1 9.60875e-05
23 *21:22 *26:11 0
24 *764:A1_N *21:22 2.84398e-05
*RES
1 *780:X *21:7 31.9964 
2 *21:7 *21:8 32 
3 *21:8 *766:B2 13.8 
4 *21:8 *21:22 12.2143 
5 *21:22 *769:B1 16.9786 
6 *21:22 *770:B2 9.3 
*END

*D_NET *22 0.00931486
*CONN
*I *772:A2_N I *D sky130_fd_sc_hd__a2bb2oi_1
*I *764:B1 I *D sky130_fd_sc_hd__a2bb2oi_1
*I *781:X O *D sky130_fd_sc_hd__clkbuf_1
*CAP
1 *772:A2_N 0
2 *764:B1 0.000875256
3 *781:X 0.000257684
4 *22:11 0.00192375
5 *22:10 0.00299641
6 *22:7 0.0022056
7 *764:B1 *763:B1 0
8 *764:B1 *768:A2_N 0
9 *764:B1 *35:21 0
10 *22:10 *787:A 0
11 *22:11 *772:A1_N 9.83388e-05
12 *22:11 *29:7 0.000957821
13 out4 *22:10 0
*RES
1 *781:X *22:7 16.8 
2 *22:7 *22:10 40.4464 
3 *22:10 *22:11 24.3571 
4 *22:11 *764:B1 27.5375 
5 *22:11 *772:A2_N 9.3 
*END

*D_NET *23 0.00891083
*CONN
*I *769:B2 I *D sky130_fd_sc_hd__a2bb2oi_1
*I *764:A2_N I *D sky130_fd_sc_hd__a2bb2oi_1
*I *782:X O *D sky130_fd_sc_hd__clkbuf_1
*CAP
1 *769:B2 7.67537e-05
2 *764:A2_N 0.000510069
3 *782:X 0.00218135
4 *23:8 0.00172668
5 *23:7 0.00332121
6 *764:A2_N *769:A1_N 9.83388e-05
7 *764:A2_N *770:A1_N 0.000456485
8 *764:A2_N *770:B1 0.000161352
9 *769:B2 *769:A2_N 0
10 *769:B2 *27:10 9.83442e-05
11 *23:8 *769:A2_N 0
12 *764:A1_N *764:A2_N 5.71472e-05
13 *769:B1 *764:A2_N 0.000159007
14 *769:B1 *769:B2 5.65955e-05
15 *21:22 *764:A2_N 7.49387e-06
*RES
1 *782:X *23:7 39.3893 
2 *23:7 *23:8 20.7679 
3 *23:8 *764:A2_N 25.3 
4 *23:8 *769:B2 15.7821 
*END

*D_NET *24 0.0120732
*CONN
*I *765:A1_N I *D sky130_fd_sc_hd__a2bb2oi_1
*I *770:B1 I *D sky130_fd_sc_hd__a2bb2oi_1
*I *774:X O *D sky130_fd_sc_hd__clkbuf_1
*CAP
1 *765:A1_N 0
2 *770:B1 0.000477186
3 *774:X 0.00144192
4 *24:12 0.00160354
5 *24:7 0.00256828
6 *770:B1 *765:B1 5.52302e-05
7 *770:B1 *30:10 5.88126e-05
8 *24:7 *783:A 0.00265694
9 *24:7 *36:8 0.000228876
10 *24:12 *772:B1 0
11 *24:12 *25:21 0
12 *24:12 *33:8 0.000126278
13 *24:12 *34:14 0.00200254
14 *764:A1_N *770:B1 5.52302e-05
15 *764:A2_N *770:B1 0.000161352
16 *764:B2 *770:B1 0.000373457
17 *767:A1_N *24:12 1.36181e-05
18 *769:B1 *770:B1 1.04232e-05
19 *18:8 *24:12 5.97941e-05
20 *18:20 *770:B1 5.33005e-05
21 *19:5 *770:B1 3.03304e-05
22 *21:22 *770:B1 9.60875e-05
*RES
1 *774:X *24:7 44.7286 
2 *24:7 *24:12 34 
3 *24:12 *770:B1 19.9964 
4 *24:12 *765:A1_N 9.3 
*END

*D_NET *25 0.0104425
*CONN
*I *783:A I *D sky130_fd_sc_hd__clkbuf_1
*I *767:B2 I *D sky130_fd_sc_hd__a2bb2oi_1
*I *766:Y O *D sky130_fd_sc_hd__a2bb2oi_1
*CAP
1 *783:A 0.000984038
2 *767:B2 0
3 *766:Y 0.000480014
4 *25:21 0.00234371
5 *25:8 0.00183968
6 *783:A *36:8 9.14454e-05
7 *25:8 *769:A2_N 0.000163111
8 *25:8 *35:8 5.7616e-05
9 *25:8 *35:21 4.78056e-05
10 *25:21 *763:B1 8.77613e-05
11 *25:21 *30:10 0.00012401
12 *25:21 *35:21 4.31097e-05
13 *25:21 *36:8 0.00119434
14 *25:21 *36:21 0.000146372
15 out0 *783:A 3.08664e-05
16 *767:A2_N *25:21 6.8646e-06
17 *777:A *783:A 0.000144773
18 *24:7 *783:A 0.00265694
19 *24:12 *25:21 0
*RES
1 *766:Y *25:8 22.6393 
2 *25:8 *767:B2 13.8 
3 *25:8 *25:21 37.1607 
4 *25:21 *783:A 37.9071 
*END

*D_NET *26 0.00727002
*CONN
*I *784:A I *D sky130_fd_sc_hd__clkbuf_1
*I *771:B1 I *D sky130_fd_sc_hd__a2bb2oi_1
*I *768:Y O *D sky130_fd_sc_hd__a2bb2oi_1
*CAP
1 *784:A 0
2 *771:B1 0
3 *768:Y 0.000314043
4 *26:23 0.00133343
5 *26:11 0.00164747
6 *26:11 *766:B1 3.34295e-05
7 *26:11 *768:A2_N 0.000211973
8 *26:11 *30:11 9.60939e-05
9 *26:11 *31:8 0.000171375
10 *26:11 *36:21 9.80173e-05
11 *26:23 *766:B1 0
12 *26:23 *30:11 0.000274288
13 *26:23 *35:7 5.71472e-05
14 *26:23 *35:8 0.00256344
15 *26:23 *35:21 0.000112323
16 *26:23 *36:21 0.000260954
17 out1 *26:23 7.43578e-06
18 *764:A1_N *26:11 7.45717e-05
19 *772:B2 *26:11 1.40305e-05
20 *21:8 *26:23 0
21 *21:22 *26:11 0
*RES
1 *768:Y *26:11 25.3714 
2 *26:11 *771:B1 9.3 
3 *26:11 *26:23 46.6607 
4 *26:23 *784:A 9.3 
*END

*D_NET *27 0.00621978
*CONN
*I *785:A I *D sky130_fd_sc_hd__clkbuf_1
*I *769:Y O *D sky130_fd_sc_hd__a2bb2oi_1
*CAP
1 *785:A 0.00142684
2 *769:Y 0.0015723
3 *27:10 0.00299914
4 *785:A *34:11 9.94899e-05
5 *769:B1 *27:10 2.36643e-05
6 *769:B2 *27:10 9.83442e-05
*RES
1 *769:Y *27:10 46.4071 
2 *27:10 *785:A 34.0679 
*END

*D_NET *28 0.00974438
*CONN
*I *786:A I *D sky130_fd_sc_hd__clkbuf_1
*I *771:Y O *D sky130_fd_sc_hd__a2bb2oi_1
*CAP
1 *786:A 0.00166487
2 *771:Y 0.002965
3 *28:7 0.00462987
4 *28:7 *769:A1_N 7.06867e-05
5 *28:7 *772:A1_N 0.000142856
6 *28:7 *32:9 0.000225609
7 out2 *786:A 9.60337e-06
8 *779:A *786:A 3.58847e-05
*RES
1 *771:Y *28:7 48.8357 
2 *28:7 *786:A 44.8893 
*END

*D_NET *29 0.00711158
*CONN
*I *787:A I *D sky130_fd_sc_hd__clkbuf_1
*I *772:Y O *D sky130_fd_sc_hd__a2bb2oi_1
*CAP
1 *787:A 0.00101204
2 *772:Y 0.00203923
3 *29:7 0.00305127
4 *29:7 *772:A1_N 5.12221e-05
5 *22:10 *787:A 0
6 *22:11 *29:7 0.000957821
*RES
1 *772:Y *29:7 41.4429 
2 *29:7 *787:A 32.4429 
*END

*D_NET *30 0.00230656
*CONN
*I *767:B1 I *D sky130_fd_sc_hd__a2bb2oi_1
*I *766:B1 I *D sky130_fd_sc_hd__a2bb2oi_1
*I *771:A2_N I *D sky130_fd_sc_hd__a2bb2oi_1
*I *765:Y O *D sky130_fd_sc_hd__a2bb2oi_1
*CAP
1 *767:B1 0
2 *766:B1 0.00011474
3 *771:A2_N 3.44009e-05
4 *765:Y 0.000156626
5 *30:11 0.000240744
6 *30:10 0.00024823
7 *766:B1 *31:8 2.49484e-05
8 *771:A2_N *771:A1_N 5.7661e-06
9 *771:A2_N *772:A1_N 5.52238e-05
10 *771:A2_N *36:21 2.89016e-05
11 *30:10 *765:B1 6.05161e-06
12 *30:10 *35:21 0.000125731
13 *30:11 *772:A1_N 0.000482588
14 *30:11 *36:21 8.44865e-05
15 *770:B1 *30:10 5.88126e-05
16 *21:8 *766:B1 3.51442e-05
17 *21:22 *766:B1 7.63389e-05
18 *25:21 *30:10 0.00012401
19 *26:11 *766:B1 3.34295e-05
20 *26:11 *30:11 9.60939e-05
21 *26:23 *766:B1 0
22 *26:23 *30:11 0.000274288
*RES
1 *765:Y *30:10 21.3 
2 *30:10 *30:11 4.64286 
3 *30:11 *771:A2_N 10.2643 
4 *30:11 *766:B1 20.8536 
5 *30:10 *767:B1 9.3 
*END

*D_NET *31 0.00341619
*CONN
*I *771:B2 I *D sky130_fd_sc_hd__a2bb2oi_1
*I *768:A2_N I *D sky130_fd_sc_hd__a2bb2oi_1
*I *770:A1_N I *D sky130_fd_sc_hd__a2bb2oi_1
*I *767:Y O *D sky130_fd_sc_hd__a2bb2oi_1
*CAP
1 *771:B2 0
2 *768:A2_N 0.000162662
3 *770:A1_N 0.000348396
4 *767:Y 0.000331295
5 *31:8 0.000643919
6 *31:5 0.000464155
7 *768:A2_N *763:B1 0
8 *768:A2_N *35:21 0
9 *770:A1_N *768:B1 2.61337e-05
10 *770:A1_N *32:9 5.80706e-06
11 *31:5 *36:21 0.000416973
12 *31:8 *35:21 0
13 *764:A2_N *770:A1_N 0.000456485
14 *764:B1 *768:A2_N 0
15 *766:B1 *31:8 2.49484e-05
16 *769:B1 *770:A1_N 0.00012613
17 *772:B2 *768:A2_N 2.59355e-05
18 *26:11 *768:A2_N 0.000211973
19 *26:11 *31:8 0.000171375
*RES
1 *767:Y *31:5 13.9429 
2 *31:5 *31:8 7.35714 
3 *31:8 *770:A1_N 29.675 
4 *31:8 *768:A2_N 17.1929 
5 *31:5 *771:B2 9.3 
*END

*D_NET *32 0.00354294
*CONN
*I *772:A1_N I *D sky130_fd_sc_hd__a2bb2oi_1
*I *771:A1_N I *D sky130_fd_sc_hd__a2bb2oi_1
*I *770:Y O *D sky130_fd_sc_hd__a2bb2oi_1
*CAP
1 *772:A1_N 0.000927355
2 *771:A1_N 2.03441e-05
3 *770:Y 0.000151266
4 *32:9 0.00109897
5 *772:A1_N *772:B1 0
6 *772:A1_N *36:21 0.000140263
7 *32:9 *768:B1 0
8 *32:9 *769:A1_N 3.67142e-05
9 *32:9 *36:21 4.53889e-05
10 *767:A1_N *772:A1_N 5.52302e-05
11 *770:A1_N *32:9 5.80706e-06
12 *771:A2_N *771:A1_N 5.7661e-06
13 *771:A2_N *772:A1_N 5.52238e-05
14 *22:11 *772:A1_N 9.83388e-05
15 *28:7 *772:A1_N 0.000142856
16 *28:7 *32:9 0.000225609
17 *29:7 *772:A1_N 5.12221e-05
18 *30:11 *772:A1_N 0.000482588
*RES
1 *770:Y *32:9 21.8179 
2 *32:9 *771:A1_N 9.72857 
3 *32:9 *772:A1_N 35.2821 
*END

*D_NET *33 0.00652449
*CONN
*I *763:A1_N I *D sky130_fd_sc_hd__a2bb2oi_1
*I *768:A1_N I *D sky130_fd_sc_hd__a2bb2oi_1
*I *773:X O *D sky130_fd_sc_hd__clkbuf_1
*CAP
1 *763:A1_N 0
2 *768:A1_N 0.000305781
3 *773:X 0.00267762
4 *33:10 0.000305781
5 *33:8 0.00267762
6 *768:A1_N *763:B1 0.000139344
7 *768:A1_N *772:B1 9.58689e-05
8 *772:B2 *768:A1_N 0.000196189
9 *24:12 *33:8 0.000126278
*RES
1 *773:X *33:8 45.9607 
2 *33:8 *33:10 4.5 
3 *33:10 *768:A1_N 15.9964 
4 *33:10 *763:A1_N 9.3 
*END

*D_NET *34 0.00831079
*CONN
*I *772:B1 I *D sky130_fd_sc_hd__a2bb2oi_1
*I *763:A2_N I *D sky130_fd_sc_hd__a2bb2oi_1
*I *775:X O *D sky130_fd_sc_hd__clkbuf_1
*CAP
1 *772:B1 0.000228328
2 *763:A2_N 0
3 *775:X 0.00176004
4 *34:14 0.000825586
5 *34:11 0.0023573
6 *34:14 *36:8 0.000713859
7 *768:A1_N *772:B1 9.58689e-05
8 *772:A1_N *772:B1 0
9 *772:B2 *772:B1 0.000227775
10 *785:A *34:11 9.94899e-05
11 *24:12 *772:B1 0
12 *24:12 *34:14 0.00200254
*RES
1 *775:X *34:11 43.675 
2 *34:11 *34:14 29.8214 
3 *34:14 *763:A2_N 9.3 
4 *34:14 *772:B1 23.4429 
*END

*D_NET *35 0.0119057
*CONN
*I *763:B1 I *D sky130_fd_sc_hd__a2bb2oi_1
*I *765:B1 I *D sky130_fd_sc_hd__a2bb2oi_1
*I *769:A2_N I *D sky130_fd_sc_hd__a2bb2oi_1
*I *776:X O *D sky130_fd_sc_hd__dlymetal6s2s_1
*CAP
1 *763:B1 0.00017004
2 *765:B1 2.54135e-05
3 *769:A2_N 0.00123513
4 *776:X 0.00141407
5 *35:21 0.00038765
6 *35:8 0.00256461
7 *35:7 0.00255135
8 *769:A2_N *769:A1_N 0
9 *764:B1 *763:B1 0
10 *764:B1 *35:21 0
11 *768:A1_N *763:B1 0.000139344
12 *768:A2_N *763:B1 0
13 *768:A2_N *35:21 0
14 *769:B2 *769:A2_N 0
15 *770:B1 *765:B1 5.52302e-05
16 *772:B2 *763:B1 9.87503e-05
17 *23:8 *769:A2_N 0
18 *25:8 *769:A2_N 0.000163111
19 *25:8 *35:8 5.7616e-05
20 *25:8 *35:21 4.78056e-05
21 *25:21 *763:B1 8.77613e-05
22 *25:21 *35:21 4.31097e-05
23 *26:23 *35:7 5.71472e-05
24 *26:23 *35:8 0.00256344
25 *26:23 *35:21 0.000112323
26 *30:10 *765:B1 6.05161e-06
27 *30:10 *35:21 0.000125731
28 *31:8 *35:21 0
*RES
1 *776:X *35:7 37.3357 
2 *35:7 *35:8 32.3036 
3 *35:8 *769:A2_N 38.8 
4 *35:8 *35:21 4.07143 
5 *35:21 *765:B1 14.3357 
6 *35:21 *763:B1 17.7107 
*END

*D_NET *36 0.00804237
*CONN
*I *763:B2 I *D sky130_fd_sc_hd__a2bb2oi_1
*I *766:A1_N I *D sky130_fd_sc_hd__a2bb2oi_1
*I *769:A1_N I *D sky130_fd_sc_hd__a2bb2oi_1
*I *777:X O *D sky130_fd_sc_hd__clkbuf_1
*CAP
1 *763:B2 0
2 *766:A1_N 8.84249e-05
3 *769:A1_N 0.000395662
4 *777:X 0.00101658
5 *36:21 0.000972914
6 *36:8 0.00150541
7 *766:A1_N *768:B1 7.252e-05
8 *766:A1_N *37:8 5.80706e-06
9 *764:A2_N *769:A1_N 9.83388e-05
10 *767:A2_N *36:21 0.00023792
11 *769:A2_N *769:A1_N 0
12 *769:B1 *769:A1_N 5.20669e-05
13 *771:A2_N *36:21 2.89016e-05
14 *772:A1_N *36:21 0.000140263
15 *783:A *36:8 9.14454e-05
16 *18:8 *36:8 5.54817e-06
17 *18:8 *36:21 3.39036e-05
18 *24:7 *36:8 0.000228876
19 *25:21 *36:8 0.00119434
20 *25:21 *36:21 0.000146372
21 *26:11 *36:21 9.80173e-05
22 *26:23 *36:21 0.000260954
23 *28:7 *769:A1_N 7.06867e-05
24 *30:11 *36:21 8.44865e-05
25 *31:5 *36:21 0.000416973
26 *32:9 *769:A1_N 3.67142e-05
27 *32:9 *36:21 4.53889e-05
28 *34:14 *36:8 0.000713859
*RES
1 *777:X *36:8 44.4607 
2 *36:8 *36:21 18.0179 
3 *36:21 *769:A1_N 25.5143 
4 *36:21 *766:A1_N 20.2464 
5 *36:8 *763:B2 13.8 
*END

*D_NET *37 0.010924
*CONN
*I *768:B1 I *D sky130_fd_sc_hd__a2bb2oi_1
*I *766:A2_N I *D sky130_fd_sc_hd__a2bb2oi_1
*I *778:X O *D sky130_fd_sc_hd__clkbuf_1
*CAP
1 *768:B1 0.000346517
2 *766:A2_N 0
3 *778:X 0.00259024
4 *37:8 0.0016284
5 *37:7 0.00387212
6 *764:A1_N *768:B1 2.82543e-05
7 *766:A1_N *768:B1 7.252e-05
8 *766:A1_N *37:8 5.80706e-06
9 *770:A1_N *768:B1 2.61337e-05
10 *770:A2_N *768:B1 0
11 *20:9 *768:B1 5.50052e-05
12 *21:7 *37:7 0.000999932
13 *21:8 *768:B1 1.41706e-05
14 *21:8 *37:8 0.000892322
15 *21:22 *768:B1 0.000392603
16 *32:9 *768:B1 0
*RES
1 *778:X *37:7 47.1929 
2 *37:7 *37:8 31.0893 
3 *37:8 *766:A2_N 13.8 