*SPEF "ieee 1481-1999"
*DESIGN "low_level_0"
*DATE "11:11:11 Fri 11 11, 1111"
*VENDOR "OpenRCX"
*PROGRAM "Parallel Extraction"
*VERSION "1.0"
*DESIGN_FLOW "NAME_SCOPE LOCAL" "PIN_CAP NONE"
*DIVIDER /
*DELIMITER :
*BUS_DELIMITER []
*T_UNIT 1 NS
*C_UNIT 1 PF
*R_UNIT 1 OHM
*L_UNIT 1 HENRY

*NAME_MAP
*3 in0
*4 in1
*5 in2
*6 in3
*7 in4
*8 in5
*9 in6
*10 in7
*11 in8
*12 in9
*13 out0
*14 out1
*15 out2
*16 out3
*17 out4
*18 net0
*19 net1
*20 net10
*21 net11
*22 net12
*23 net13
*24 net14
*25 net15
*26 net16
*27 net17
*28 net18
*29 net19
*30 net2
*31 net3
*32 net4
*33 net5
*34 net6
*35 net7
*36 net8
*37 net9
*38 FILLER_0_104
*39 FILLER_0_113
*40 FILLER_0_125
*41 FILLER_0_137
*42 FILLER_0_141
*43 FILLER_0_153
*44 FILLER_0_160
*45 FILLER_0_169
*46 FILLER_0_181
*47 FILLER_0_188
*48 FILLER_0_20
*49 FILLER_0_29
*50 FILLER_0_3
*51 FILLER_0_41
*52 FILLER_0_48
*53 FILLER_0_57
*54 FILLER_0_69
*55 FILLER_0_8
*56 FILLER_0_81
*57 FILLER_0_85
*58 FILLER_0_97
*59 FILLER_10_109
*60 FILLER_10_121
*61 FILLER_10_133
*62 FILLER_10_139
*63 FILLER_10_141
*64 FILLER_10_15
*65 FILLER_10_153
*66 FILLER_10_165
*67 FILLER_10_177
*68 FILLER_10_189
*69 FILLER_10_27
*70 FILLER_10_29
*71 FILLER_10_3
*72 FILLER_10_41
*73 FILLER_10_53
*74 FILLER_10_65
*75 FILLER_10_77
*76 FILLER_10_83
*77 FILLER_10_85
*78 FILLER_10_97
*79 FILLER_11_105
*80 FILLER_11_111
*81 FILLER_11_113
*82 FILLER_11_125
*83 FILLER_11_137
*84 FILLER_11_149
*85 FILLER_11_15
*86 FILLER_11_161
*87 FILLER_11_167
*88 FILLER_11_169
*89 FILLER_11_181
*90 FILLER_11_189
*91 FILLER_11_27
*92 FILLER_11_3
*93 FILLER_11_39
*94 FILLER_11_51
*95 FILLER_11_55
*96 FILLER_11_57
*97 FILLER_11_69
*98 FILLER_11_81
*99 FILLER_11_93
*100 FILLER_12_109
*101 FILLER_12_121
*102 FILLER_12_133
*103 FILLER_12_139
*104 FILLER_12_141
*105 FILLER_12_15
*106 FILLER_12_153
*107 FILLER_12_165
*108 FILLER_12_177
*109 FILLER_12_189
*110 FILLER_12_27
*111 FILLER_12_29
*112 FILLER_12_3
*113 FILLER_12_41
*114 FILLER_12_53
*115 FILLER_12_65
*116 FILLER_12_77
*117 FILLER_12_83
*118 FILLER_12_85
*119 FILLER_12_97
*120 FILLER_13_110
*121 FILLER_13_113
*122 FILLER_13_125
*123 FILLER_13_137
*124 FILLER_13_149
*125 FILLER_13_15
*126 FILLER_13_161
*127 FILLER_13_167
*128 FILLER_13_169
*129 FILLER_13_181
*130 FILLER_13_189
*131 FILLER_13_27
*132 FILLER_13_3
*133 FILLER_13_39
*134 FILLER_13_51
*135 FILLER_13_55
*136 FILLER_13_57
*137 FILLER_13_69
*138 FILLER_13_81
*139 FILLER_13_87
*140 FILLER_13_98
*141 FILLER_14_104
*142 FILLER_14_115
*143 FILLER_14_127
*144 FILLER_14_139
*145 FILLER_14_141
*146 FILLER_14_15
*147 FILLER_14_153
*148 FILLER_14_165
*149 FILLER_14_177
*150 FILLER_14_189
*151 FILLER_14_27
*152 FILLER_14_29
*153 FILLER_14_3
*154 FILLER_14_41
*155 FILLER_14_53
*156 FILLER_14_65
*157 FILLER_14_77
*158 FILLER_14_83
*159 FILLER_14_85
*160 FILLER_14_98
*161 FILLER_15_102
*162 FILLER_15_110
*163 FILLER_15_113
*164 FILLER_15_125
*165 FILLER_15_137
*166 FILLER_15_149
*167 FILLER_15_15
*168 FILLER_15_161
*169 FILLER_15_167
*170 FILLER_15_169
*171 FILLER_15_181
*172 FILLER_15_189
*173 FILLER_15_27
*174 FILLER_15_3
*175 FILLER_15_39
*176 FILLER_15_51
*177 FILLER_15_55
*178 FILLER_15_57
*179 FILLER_15_69
*180 FILLER_15_81
*181 FILLER_15_89
*182 FILLER_16_108
*183 FILLER_16_122
*184 FILLER_16_134
*185 FILLER_16_141
*186 FILLER_16_153
*187 FILLER_16_165
*188 FILLER_16_177
*189 FILLER_16_189
*190 FILLER_16_20
*191 FILLER_16_29
*192 FILLER_16_3
*193 FILLER_16_41
*194 FILLER_16_53
*195 FILLER_16_65
*196 FILLER_16_71
*197 FILLER_16_8
*198 FILLER_16_82
*199 FILLER_16_85
*200 FILLER_16_97
*201 FILLER_17_110
*202 FILLER_17_113
*203 FILLER_17_125
*204 FILLER_17_137
*205 FILLER_17_149
*206 FILLER_17_15
*207 FILLER_17_161
*208 FILLER_17_167
*209 FILLER_17_169
*210 FILLER_17_181
*211 FILLER_17_188
*212 FILLER_17_27
*213 FILLER_17_3
*214 FILLER_17_39
*215 FILLER_17_51
*216 FILLER_17_55
*217 FILLER_17_57
*218 FILLER_17_69
*219 FILLER_17_82
*220 FILLER_17_96
*221 FILLER_18_109
*222 FILLER_18_121
*223 FILLER_18_133
*224 FILLER_18_139
*225 FILLER_18_141
*226 FILLER_18_15
*227 FILLER_18_153
*228 FILLER_18_165
*229 FILLER_18_177
*230 FILLER_18_189
*231 FILLER_18_27
*232 FILLER_18_29
*233 FILLER_18_3
*234 FILLER_18_41
*235 FILLER_18_53
*236 FILLER_18_65
*237 FILLER_18_77
*238 FILLER_18_83
*239 FILLER_18_85
*240 FILLER_18_97
*241 FILLER_19_105
*242 FILLER_19_111
*243 FILLER_19_113
*244 FILLER_19_125
*245 FILLER_19_137
*246 FILLER_19_149
*247 FILLER_19_15
*248 FILLER_19_161
*249 FILLER_19_167
*250 FILLER_19_169
*251 FILLER_19_181
*252 FILLER_19_189
*253 FILLER_19_27
*254 FILLER_19_3
*255 FILLER_19_39
*256 FILLER_19_51
*257 FILLER_19_55
*258 FILLER_19_57
*259 FILLER_19_69
*260 FILLER_19_81
*261 FILLER_19_93
*262 FILLER_1_105
*263 FILLER_1_111
*264 FILLER_1_113
*265 FILLER_1_125
*266 FILLER_1_137
*267 FILLER_1_149
*268 FILLER_1_15
*269 FILLER_1_161
*270 FILLER_1_167
*271 FILLER_1_169
*272 FILLER_1_181
*273 FILLER_1_189
*274 FILLER_1_27
*275 FILLER_1_3
*276 FILLER_1_39
*277 FILLER_1_51
*278 FILLER_1_55
*279 FILLER_1_57
*280 FILLER_1_69
*281 FILLER_1_81
*282 FILLER_1_93
*283 FILLER_20_109
*284 FILLER_20_121
*285 FILLER_20_133
*286 FILLER_20_139
*287 FILLER_20_141
*288 FILLER_20_15
*289 FILLER_20_153
*290 FILLER_20_165
*291 FILLER_20_177
*292 FILLER_20_189
*293 FILLER_20_27
*294 FILLER_20_29
*295 FILLER_20_3
*296 FILLER_20_41
*297 FILLER_20_53
*298 FILLER_20_65
*299 FILLER_20_77
*300 FILLER_20_83
*301 FILLER_20_85
*302 FILLER_20_97
*303 FILLER_21_105
*304 FILLER_21_111
*305 FILLER_21_113
*306 FILLER_21_125
*307 FILLER_21_137
*308 FILLER_21_149
*309 FILLER_21_15
*310 FILLER_21_161
*311 FILLER_21_167
*312 FILLER_21_169
*313 FILLER_21_181
*314 FILLER_21_189
*315 FILLER_21_27
*316 FILLER_21_3
*317 FILLER_21_39
*318 FILLER_21_51
*319 FILLER_21_55
*320 FILLER_21_57
*321 FILLER_21_69
*322 FILLER_21_81
*323 FILLER_21_93
*324 FILLER_22_109
*325 FILLER_22_121
*326 FILLER_22_133
*327 FILLER_22_139
*328 FILLER_22_141
*329 FILLER_22_15
*330 FILLER_22_153
*331 FILLER_22_165
*332 FILLER_22_177
*333 FILLER_22_189
*334 FILLER_22_27
*335 FILLER_22_29
*336 FILLER_22_3
*337 FILLER_22_41
*338 FILLER_22_53
*339 FILLER_22_65
*340 FILLER_22_77
*341 FILLER_22_83
*342 FILLER_22_85
*343 FILLER_22_97
*344 FILLER_23_105
*345 FILLER_23_111
*346 FILLER_23_113
*347 FILLER_23_125
*348 FILLER_23_137
*349 FILLER_23_149
*350 FILLER_23_15
*351 FILLER_23_161
*352 FILLER_23_167
*353 FILLER_23_169
*354 FILLER_23_181
*355 FILLER_23_189
*356 FILLER_23_27
*357 FILLER_23_3
*358 FILLER_23_39
*359 FILLER_23_51
*360 FILLER_23_55
*361 FILLER_23_57
*362 FILLER_23_69
*363 FILLER_23_81
*364 FILLER_23_93
*365 FILLER_24_109
*366 FILLER_24_121
*367 FILLER_24_133
*368 FILLER_24_139
*369 FILLER_24_141
*370 FILLER_24_15
*371 FILLER_24_153
*372 FILLER_24_165
*373 FILLER_24_177
*374 FILLER_24_189
*375 FILLER_24_27
*376 FILLER_24_29
*377 FILLER_24_3
*378 FILLER_24_41
*379 FILLER_24_53
*380 FILLER_24_65
*381 FILLER_24_77
*382 FILLER_24_83
*383 FILLER_24_85
*384 FILLER_24_97
*385 FILLER_25_105
*386 FILLER_25_111
*387 FILLER_25_113
*388 FILLER_25_125
*389 FILLER_25_137
*390 FILLER_25_149
*391 FILLER_25_15
*392 FILLER_25_161
*393 FILLER_25_167
*394 FILLER_25_169
*395 FILLER_25_181
*396 FILLER_25_189
*397 FILLER_25_27
*398 FILLER_25_3
*399 FILLER_25_39
*400 FILLER_25_51
*401 FILLER_25_55
*402 FILLER_25_57
*403 FILLER_25_69
*404 FILLER_25_81
*405 FILLER_25_93
*406 FILLER_26_109
*407 FILLER_26_121
*408 FILLER_26_133
*409 FILLER_26_139
*410 FILLER_26_141
*411 FILLER_26_153
*412 FILLER_26_165
*413 FILLER_26_177
*414 FILLER_26_189
*415 FILLER_26_20
*416 FILLER_26_29
*417 FILLER_26_3
*418 FILLER_26_41
*419 FILLER_26_53
*420 FILLER_26_65
*421 FILLER_26_77
*422 FILLER_26_8
*423 FILLER_26_83
*424 FILLER_26_85
*425 FILLER_26_97
*426 FILLER_27_109
*427 FILLER_27_113
*428 FILLER_27_118
*429 FILLER_27_130
*430 FILLER_27_138
*431 FILLER_27_141
*432 FILLER_27_153
*433 FILLER_27_165
*434 FILLER_27_169
*435 FILLER_27_174
*436 FILLER_27_182
*437 FILLER_27_188
*438 FILLER_27_20
*439 FILLER_27_29
*440 FILLER_27_3
*441 FILLER_27_41
*442 FILLER_27_53
*443 FILLER_27_57
*444 FILLER_27_62
*445 FILLER_27_74
*446 FILLER_27_8
*447 FILLER_27_82
*448 FILLER_27_85
*449 FILLER_27_97
*450 FILLER_2_109
*451 FILLER_2_121
*452 FILLER_2_133
*453 FILLER_2_139
*454 FILLER_2_141
*455 FILLER_2_15
*456 FILLER_2_153
*457 FILLER_2_165
*458 FILLER_2_177
*459 FILLER_2_189
*460 FILLER_2_27
*461 FILLER_2_29
*462 FILLER_2_3
*463 FILLER_2_41
*464 FILLER_2_53
*465 FILLER_2_65
*466 FILLER_2_77
*467 FILLER_2_83
*468 FILLER_2_85
*469 FILLER_2_97
*470 FILLER_3_105
*471 FILLER_3_111
*472 FILLER_3_113
*473 FILLER_3_125
*474 FILLER_3_137
*475 FILLER_3_149
*476 FILLER_3_15
*477 FILLER_3_161
*478 FILLER_3_167
*479 FILLER_3_169
*480 FILLER_3_181
*481 FILLER_3_189
*482 FILLER_3_27
*483 FILLER_3_3
*484 FILLER_3_39
*485 FILLER_3_51
*486 FILLER_3_55
*487 FILLER_3_57
*488 FILLER_3_69
*489 FILLER_3_81
*490 FILLER_3_93
*491 FILLER_4_109
*492 FILLER_4_121
*493 FILLER_4_133
*494 FILLER_4_139
*495 FILLER_4_141
*496 FILLER_4_15
*497 FILLER_4_153
*498 FILLER_4_165
*499 FILLER_4_177
*500 FILLER_4_189
*501 FILLER_4_27
*502 FILLER_4_29
*503 FILLER_4_3
*504 FILLER_4_41
*505 FILLER_4_53
*506 FILLER_4_65
*507 FILLER_4_77
*508 FILLER_4_83
*509 FILLER_4_85
*510 FILLER_4_97
*511 FILLER_5_105
*512 FILLER_5_111
*513 FILLER_5_113
*514 FILLER_5_125
*515 FILLER_5_137
*516 FILLER_5_149
*517 FILLER_5_15
*518 FILLER_5_161
*519 FILLER_5_167
*520 FILLER_5_169
*521 FILLER_5_181
*522 FILLER_5_189
*523 FILLER_5_27
*524 FILLER_5_3
*525 FILLER_5_39
*526 FILLER_5_51
*527 FILLER_5_55
*528 FILLER_5_57
*529 FILLER_5_69
*530 FILLER_5_81
*531 FILLER_5_93
*532 FILLER_6_109
*533 FILLER_6_121
*534 FILLER_6_133
*535 FILLER_6_139
*536 FILLER_6_141
*537 FILLER_6_153
*538 FILLER_6_165
*539 FILLER_6_177
*540 FILLER_6_189
*541 FILLER_6_20
*542 FILLER_6_29
*543 FILLER_6_3
*544 FILLER_6_41
*545 FILLER_6_53
*546 FILLER_6_65
*547 FILLER_6_77
*548 FILLER_6_8
*549 FILLER_6_83
*550 FILLER_6_85
*551 FILLER_6_97
*552 FILLER_7_105
*553 FILLER_7_111
*554 FILLER_7_113
*555 FILLER_7_125
*556 FILLER_7_137
*557 FILLER_7_149
*558 FILLER_7_15
*559 FILLER_7_161
*560 FILLER_7_167
*561 FILLER_7_169
*562 FILLER_7_181
*563 FILLER_7_188
*564 FILLER_7_27
*565 FILLER_7_3
*566 FILLER_7_39
*567 FILLER_7_51
*568 FILLER_7_55
*569 FILLER_7_57
*570 FILLER_7_69
*571 FILLER_7_81
*572 FILLER_7_93
*573 FILLER_8_109
*574 FILLER_8_121
*575 FILLER_8_133
*576 FILLER_8_139
*577 FILLER_8_141
*578 FILLER_8_15
*579 FILLER_8_153
*580 FILLER_8_165
*581 FILLER_8_177
*582 FILLER_8_189
*583 FILLER_8_27
*584 FILLER_8_29
*585 FILLER_8_3
*586 FILLER_8_41
*587 FILLER_8_53
*588 FILLER_8_65
*589 FILLER_8_77
*590 FILLER_8_83
*591 FILLER_8_85
*592 FILLER_8_97
*593 FILLER_9_105
*594 FILLER_9_111
*595 FILLER_9_113
*596 FILLER_9_125
*597 FILLER_9_137
*598 FILLER_9_149
*599 FILLER_9_15
*600 FILLER_9_161
*601 FILLER_9_167
*602 FILLER_9_169
*603 FILLER_9_181
*604 FILLER_9_189
*605 FILLER_9_27
*606 FILLER_9_3
*607 FILLER_9_39
*608 FILLER_9_51
*609 FILLER_9_55
*610 FILLER_9_57
*611 FILLER_9_69
*612 FILLER_9_81
*613 FILLER_9_93
*614 PHY_0
*615 PHY_1
*616 PHY_10
*617 PHY_11
*618 PHY_12
*619 PHY_13
*620 PHY_14
*621 PHY_15
*622 PHY_16
*623 PHY_17
*624 PHY_18
*625 PHY_19
*626 PHY_2
*627 PHY_20
*628 PHY_21
*629 PHY_22
*630 PHY_23
*631 PHY_24
*632 PHY_25
*633 PHY_26
*634 PHY_27
*635 PHY_28
*636 PHY_29
*637 PHY_3
*638 PHY_30
*639 PHY_31
*640 PHY_32
*641 PHY_33
*642 PHY_34
*643 PHY_35
*644 PHY_36
*645 PHY_37
*646 PHY_38
*647 PHY_39
*648 PHY_4
*649 PHY_40
*650 PHY_41
*651 PHY_42
*652 PHY_43
*653 PHY_44
*654 PHY_45
*655 PHY_46
*656 PHY_47
*657 PHY_48
*658 PHY_49
*659 PHY_5
*660 PHY_50
*661 PHY_51
*662 PHY_52
*663 PHY_53
*664 PHY_54
*665 PHY_55
*666 PHY_6
*667 PHY_7
*668 PHY_8
*669 PHY_9
*670 TAP_100
*671 TAP_101
*672 TAP_102
*673 TAP_103
*674 TAP_104
*675 TAP_105
*676 TAP_106
*677 TAP_107
*678 TAP_108
*679 TAP_109
*680 TAP_110
*681 TAP_111
*682 TAP_112
*683 TAP_113
*684 TAP_114
*685 TAP_115
*686 TAP_116
*687 TAP_117
*688 TAP_118
*689 TAP_119
*690 TAP_120
*691 TAP_121
*692 TAP_122
*693 TAP_123
*694 TAP_124
*695 TAP_125
*696 TAP_126
*697 TAP_127
*698 TAP_128
*699 TAP_129
*700 TAP_130
*701 TAP_131
*702 TAP_132
*703 TAP_133
*704 TAP_134
*705 TAP_135
*706 TAP_136
*707 TAP_137
*708 TAP_138
*709 TAP_139
*710 TAP_140
*711 TAP_141
*712 TAP_142
*713 TAP_143
*714 TAP_144
*715 TAP_145
*716 TAP_56
*717 TAP_57
*718 TAP_58
*719 TAP_59
*720 TAP_60
*721 TAP_61
*722 TAP_62
*723 TAP_63
*724 TAP_64
*725 TAP_65
*726 TAP_66
*727 TAP_67
*728 TAP_68
*729 TAP_69
*730 TAP_70
*731 TAP_71
*732 TAP_72
*733 TAP_73
*734 TAP_74
*735 TAP_75
*736 TAP_76
*737 TAP_77
*738 TAP_78
*739 TAP_79
*740 TAP_80
*741 TAP_81
*742 TAP_82
*743 TAP_83
*744 TAP_84
*745 TAP_85
*746 TAP_86
*747 TAP_87
*748 TAP_88
*749 TAP_89
*750 TAP_90
*751 TAP_91
*752 TAP_92
*753 TAP_93
*754 TAP_94
*755 TAP_95
*756 TAP_96
*757 TAP_97
*758 TAP_98
*759 TAP_99
*760 c0
*761 c1
*762 c2
*763 c3
*764 c4
*765 c5
*766 c6
*767 c7
*768 c8
*769 c9
*770 input1
*771 input10
*772 input2
*773 input3
*774 input4
*775 input5
*776 input6
*777 input7
*778 input8
*779 input9
*780 output11
*781 output12
*782 output13
*783 output14
*784 output15

*PORTS
in0 I
in1 I
in2 I
in3 I
in4 I
in5 I
in6 I
in7 I
in8 I
in9 I
out0 O
out1 O
out2 O
out3 O
out4 O

*D_NET *3 0.000627361
*CONN
*P in0 I
*I *770:A I *D sky130_fd_sc_hd__clkbuf_1
*CAP
1 in0 0.00031368
2 *770:A 0.00031368
*RES
1 in0 *770:A 18.6426 
*END

*D_NET *4 0.00104922
*CONN
*P in1 I
*I *772:A I *D sky130_fd_sc_hd__clkbuf_1
*CAP
1 in1 0.000496036
2 *772:A 0.000496036
3 *772:A *783:A 5.71472e-05
*RES
1 in1 *772:A 23.6571 
*END

*D_NET *5 0.000967467
*CONN
*P in2 I
*I *773:A I *D sky130_fd_sc_hd__clkbuf_1
*CAP
1 in2 0.000444846
2 *773:A 0.000444846
3 *773:A *22:5 7.77751e-05
*RES
1 in2 *773:A 22.6571 
*END

*D_NET *6 0.00112741
*CONN
*P in3 I
*I *774:A I *D sky130_fd_sc_hd__clkbuf_1
*CAP
1 in3 0.000561861
2 *774:A 0.000561861
3 *774:A *24:7 3.69047e-06
*RES
1 in3 *774:A 24.4786 
*END

*D_NET *7 0.00153193
*CONN
*P in4 I
*I *775:A I *D sky130_fd_sc_hd__clkbuf_1
*CAP
1 in4 0.000765967
2 *775:A 0.000765967
*RES
1 in4 *775:A 28.4071 
*END

*D_NET *8 0.000634519
*CONN
*P in5 I
*I *776:A I *D sky130_fd_sc_hd__clkbuf_1
*CAP
1 in5 0.00031726
2 *776:A 0.00031726
*RES
1 in5 *776:A 18.8741 
*END

*D_NET *9 0.000846379
*CONN
*P in6 I
*I *777:A I *D sky130_fd_sc_hd__clkbuf_1
*CAP
1 in6 0.000413544
2 *777:A 0.000413544
3 *777:A *37:7 1.92905e-05
*RES
1 in6 *777:A 21.8357 
*END

*D_NET *10 0.00128322
*CONN
*P in7 I
*I *778:A I *D sky130_fd_sc_hd__clkbuf_1
*CAP
1 in7 0.00064161
2 *778:A 0.00064161
*RES
1 in7 *778:A 25.6248 
*END

*D_NET *11 0.000607508
*CONN
*P in8 I
*I *779:A I *D sky130_fd_sc_hd__clkbuf_1
*CAP
1 in8 0.000303754
2 *779:A 0.000303754
*RES
1 in8 *779:A 18.8741 
*END

*D_NET *12 0.000574225
*CONN
*P in9 I
*I *771:A I *D sky130_fd_sc_hd__clkbuf_1
*CAP
1 in9 0.000287113
2 *771:A 0.000287113
*RES
1 in9 *771:A 18.6426 
*END

*D_NET *13 0.000985845
*CONN
*P out0 O
*I *780:X O *D sky130_fd_sc_hd__clkbuf_1
*CAP
1 out0 0.000490215
2 *780:X 0.000490215
3 out0 *24:7 5.41466e-06
*RES
1 *780:X out0 23.05 
*END

*D_NET *14 0.000821607
*CONN
*P out1 O
*I *781:X O *D sky130_fd_sc_hd__clkbuf_1
*CAP
1 out1 0.000396348
2 *781:X 0.000396348
3 out1 *26:9 2.89114e-05
*RES
1 *781:X out1 21.2286 
*END

*D_NET *15 0.000585722
*CONN
*P out2 O
*I *782:X O *D sky130_fd_sc_hd__clkbuf_1
*CAP
1 out2 0.000292861
2 *782:X 0.000292861
*RES
1 *782:X out2 18.267 
*END

*D_NET *16 0.0011192
*CONN
*P out3 O
*I *783:X O *D sky130_fd_sc_hd__clkbuf_1
*CAP
1 out3 0.000559599
2 *783:X 0.000559599
*RES
1 *783:X out3 23.8714 
*END

*D_NET *17 0.000560229
*CONN
*P out4 O
*I *784:X O *D sky130_fd_sc_hd__clkbuf_1
*CAP
1 out4 0.000280114
2 *784:X 0.000280114
*RES
1 *784:X out4 18.3391 
*END

*D_NET *18 0.00437778
*CONN
*I *762:B_N I *D sky130_fd_sc_hd__and4bb_1
*I *764:A_N I *D sky130_fd_sc_hd__and4bb_1
*I *761:D I *D sky130_fd_sc_hd__and4bb_1
*I *760:X O *D sky130_fd_sc_hd__and4bb_1
*CAP
1 *762:B_N 0.000284792
2 *764:A_N 0.000397728
3 *761:D 0.000302292
4 *760:X 0
5 *18:7 0.000728987
6 *18:4 0.000313759
7 *761:D *765:B_N 0
8 *761:D *769:B_N 0.000103253
9 *761:D *21:8 0.000125674
10 *761:D *21:17 8.86842e-05
11 *761:D *31:16 0
12 *762:B_N *760:B_N 0.000183711
13 *762:B_N *760:C 3.49456e-06
14 *762:B_N *762:A_N 7.57394e-05
15 *762:B_N *762:D 0.000315812
16 *762:B_N *766:B_N 6.75952e-05
17 *762:B_N *35:17 5.75688e-05
18 *762:B_N *36:9 0.000655756
19 *762:B_N *36:17 4.63219e-05
20 *764:A_N *763:D 7.48644e-05
21 *764:A_N *764:B_N 1.84865e-05
22 *764:A_N *21:17 2.37944e-05
23 *764:A_N *25:13 4.07224e-05
24 *764:A_N *30:17 0.000184976
25 *764:A_N *33:8 9.58689e-05
26 *18:7 *766:B_N 0.000141941
27 *18:7 *36:17 4.59602e-05
*RES
1 *760:X *18:4 9.3 
2 *18:4 *18:7 5.85714 
3 *18:7 *761:D 20.3 
4 *18:7 *764:A_N 21.8179 
5 *18:4 *762:B_N 19.3179 
*END

*D_NET *19 0.0029039
*CONN
*I *764:B_N I *D sky130_fd_sc_hd__and4bb_1
*I *762:D I *D sky130_fd_sc_hd__and4bb_1
*I *761:X O *D sky130_fd_sc_hd__and4bb_1
*CAP
1 *764:B_N 0.000193902
2 *762:D 4.20209e-05
3 *761:X 0.000631818
4 *19:8 0.000867741
5 *762:D *35:17 0.000315812
6 *764:B_N *765:A_N 6.8255e-05
7 *764:B_N *25:13 5.50052e-05
8 *764:B_N *33:8 9.96487e-05
9 *19:8 *765:A_N 0.000295405
10 *19:8 *765:B_N 0
11 *19:8 *35:14 0
12 *762:B_N *762:D 0.000315812
13 *764:A_N *764:B_N 1.84865e-05
*RES
1 *761:X *19:8 24.5321 
2 *19:8 *762:D 16.8 
3 *19:8 *764:B_N 17.8 
*END

*D_NET *20 0.0101979
*CONN
*I *767:B_N I *D sky130_fd_sc_hd__and4bb_1
*I *765:D I *D sky130_fd_sc_hd__and4bb_1
*I *769:D I *D sky130_fd_sc_hd__and4bb_1
*I *761:A_N I *D sky130_fd_sc_hd__and4bb_1
*I *776:X O *D sky130_fd_sc_hd__clkbuf_1
*CAP
1 *767:B_N 0.000209843
2 *765:D 0
3 *769:D 0.000342272
4 *761:A_N 0.000120051
5 *776:X 0.00165389
6 *20:25 0.000342272
7 *20:14 0.000168013
8 *20:12 0.000344204
9 *20:11 0.00174029
10 *761:A_N *763:B_N 7.22594e-05
11 *761:A_N *766:D 0.000179656
12 *761:A_N *23:8 8.32242e-05
13 *761:A_N *37:8 0.000177948
14 *767:B_N *767:C 0.000228558
15 *767:B_N *767:D 2.89114e-05
16 *767:B_N *768:A_N 9.41642e-05
17 *769:D *765:A_N 0.000142053
18 *769:D *765:B_N 0.000186662
19 *769:D *769:A_N 5.91452e-05
20 *769:D *769:B_N 0.000187951
21 *769:D *769:C 0.000404707
22 *20:11 *766:A_N 0.000313074
23 *20:11 *766:C 0.000203227
24 *20:11 *766:D 2.36643e-05
25 *20:11 *27:7 0.00192516
26 *20:11 *36:17 0.000137639
27 *20:12 *763:B_N 0.000214189
28 *20:12 *766:D 0.000136806
29 *20:12 *768:C 3.11713e-05
30 *20:14 *763:B_N 0.000227729
31 *20:14 *766:D 0.000219193
*RES
1 *776:X *20:11 48.5679 
2 *20:11 *20:12 2.85714 
3 *20:12 *20:14 2.85714 
4 *20:14 *761:A_N 17.4964 
5 *20:14 *20:25 4.5 
6 *20:25 *769:D 18.8893 
7 *20:25 *765:D 9.3 
8 *20:12 *767:B_N 18.0321 
*END

*D_NET *21 0.0119514
*CONN
*I *763:D I *D sky130_fd_sc_hd__and4bb_1
*I *766:C I *D sky130_fd_sc_hd__and4bb_1
*I *767:D I *D sky130_fd_sc_hd__and4bb_1
*I *777:X O *D sky130_fd_sc_hd__clkbuf_1
*CAP
1 *763:D 7.23384e-05
2 *766:C 0.000147529
3 *767:D 2.76349e-05
4 *777:X 0.00151328
5 *21:17 0.000309327
6 *21:8 0.000963353
7 *21:7 0.00235954
8 *763:D *763:B_N 8.40601e-05
9 *766:C *766:A_N 0.000314779
10 *766:C *766:B_N 8.35129e-05
11 *766:C *766:D 0.000614362
12 *766:C *36:17 0.000251311
13 *21:7 *26:9 0.000126629
14 *21:7 *37:7 0.000199601
15 *21:8 *763:B_N 6.7257e-05
16 *21:8 *769:A_N 0.000128154
17 *21:8 *769:B_N 0.000144512
18 *21:8 *22:8 0.002468
19 *21:8 *26:9 0
20 *21:8 *37:8 0.00139161
21 *21:17 *763:B_N 6.89558e-05
22 *21:17 *769:A_N 7.05375e-05
23 *761:D *21:8 0.000125674
24 *761:D *21:17 8.86842e-05
25 *764:A_N *763:D 7.48644e-05
26 *764:A_N *21:17 2.37944e-05
27 *767:B_N *767:D 2.89114e-05
28 *20:11 *766:C 0.000203227
*RES
1 *777:X *21:7 32.8179 
2 *21:7 *21:8 37.1607 
3 *21:8 *767:D 14.3357 
4 *21:8 *21:17 2.85714 
5 *21:17 *766:C 21.3179 
6 *21:17 *763:D 16.05 
*END

*D_NET *22 0.0119794
*CONN
*I *769:B_N I *D sky130_fd_sc_hd__and4bb_1
*I *761:C I *D sky130_fd_sc_hd__and4bb_1
*I *778:X O *D sky130_fd_sc_hd__clkbuf_1
*CAP
1 *769:B_N 0.000421711
2 *761:C 0
3 *778:X 0.00181262
4 *22:8 0.00153186
5 *22:5 0.00292277
6 *769:B_N *765:B_N 0.000188586
7 *22:5 *26:9 0.000227322
8 *22:5 *35:7 0.00189306
9 *761:D *769:B_N 0.000103253
10 *769:D *769:B_N 0.000187951
11 *773:A *22:5 7.77751e-05
12 *21:8 *769:B_N 0.000144512
13 *21:8 *22:8 0.002468
*RES
1 *778:X *22:5 46.8 
2 *22:5 *22:8 35.5893 
3 *22:8 *761:C 13.8 
4 *22:8 *769:B_N 21.2286 
*END

*D_NET *23 0.0113377
*CONN
*I *766:D I *D sky130_fd_sc_hd__and4bb_1
*I *761:B_N I *D sky130_fd_sc_hd__and4bb_1
*I *779:X O *D sky130_fd_sc_hd__clkbuf_1
*CAP
1 *766:D 0.000302157
2 *761:B_N 0
3 *779:X 0.00291388
4 *23:8 0.000655385
5 *23:7 0.00326711
6 *766:D *766:B_N 0.000397413
7 *766:D *768:C 0.000440931
8 *766:D *26:9 9.4724e-05
9 *23:8 *26:9 0.00133647
10 *23:8 *37:8 0.0006727
11 *761:A_N *766:D 0.000179656
12 *761:A_N *23:8 8.32242e-05
13 *766:C *766:D 0.000614362
14 *20:11 *766:D 2.36643e-05
15 *20:12 *766:D 0.000136806
16 *20:14 *766:D 0.000219193
*RES
1 *779:X *23:7 47.6036 
2 *23:7 *23:8 16.8214 
3 *23:8 *761:B_N 13.8 
4 *23:8 *766:D 26.8893 
*END

*D_NET *24 0.0102694
*CONN
*I *762:A_N I *D sky130_fd_sc_hd__and4bb_1
*I *767:C I *D sky130_fd_sc_hd__and4bb_1
*I *771:X O *D sky130_fd_sc_hd__clkbuf_1
*CAP
1 *762:A_N 7.14492e-05
2 *767:C 0.000910379
3 *771:X 0.00240583
4 *24:8 0.00200198
5 *24:7 0.00342598
6 *767:C *35:14 4.87559e-05
7 *767:C *36:8 1.6815e-05
8 *24:8 *36:8 0.00107476
9 out0 *24:7 5.41466e-06
10 *762:B_N *762:A_N 7.57394e-05
11 *767:B_N *767:C 0.000228558
12 *774:A *24:7 3.69047e-06
*RES
1 *771:X *24:7 41.8536 
2 *24:7 *24:8 25.625 
3 *24:8 *767:C 25.2107 
4 *24:8 *762:A_N 15.1571 
*END

*D_NET *25 0.00833848
*CONN
*I *780:A I *D sky130_fd_sc_hd__clkbuf_1
*I *764:D I *D sky130_fd_sc_hd__and4bb_1
*I *763:X O *D sky130_fd_sc_hd__and4bb_1
*CAP
1 *780:A 0.00128703
2 *764:D 0
3 *763:X 0.000207715
4 *25:13 0.00362909
5 *25:5 0.00254977
6 *25:5 *768:D 0.00022887
7 *25:5 *30:17 4.37451e-05
8 *25:13 *30:17 2.24804e-05
9 *25:13 *33:8 0.000274058
10 *764:A_N *25:13 4.07224e-05
11 *764:B_N *25:13 5.50052e-05
*RES
1 *763:X *25:5 12.3 
2 *25:5 *764:D 9.3 
3 *25:5 *25:13 33.7857 
4 *25:13 *780:A 37.6036 
*END

*D_NET *26 0.0076803
*CONN
*I *768:C I *D sky130_fd_sc_hd__and4bb_1
*I *781:A I *D sky130_fd_sc_hd__clkbuf_1
*I *765:X O *D sky130_fd_sc_hd__and4bb_1
*CAP
1 *768:C 0.00044982
2 *781:A 0
3 *765:X 0
4 *26:9 0.00154134
5 *26:5 0.00199116
6 *768:C *763:A_N 0.000124157
7 *768:C *763:B_N 3.6236e-05
8 *768:C *768:A_N 0.000348727
9 *768:C *768:B_N 0.000359146
10 *768:C *768:D 7.96867e-05
11 *26:9 *37:7 5.41609e-05
12 *26:9 *37:8 0.000409699
13 out1 *26:9 2.89114e-05
14 *766:D *768:C 0.000440931
15 *766:D *26:9 9.4724e-05
16 *20:12 *768:C 3.11713e-05
17 *21:7 *26:9 0.000126629
18 *21:8 *26:9 0
19 *22:5 *26:9 0.000227322
20 *23:8 *26:9 0.00133647
*RES
1 *765:X *26:5 13.8 
2 *26:5 *26:9 44.3036 
3 *26:9 *781:A 9.3 
4 *26:5 *768:C 27.2821 
*END

*D_NET *27 0.00797929
*CONN
*I *782:A I *D sky130_fd_sc_hd__clkbuf_1
*I *766:X O *D sky130_fd_sc_hd__and4bb_1
*CAP
1 *782:A 0.00183352
2 *766:X 0.00119355
3 *27:7 0.00302706
4 *20:11 *27:7 0.00192516
*RES
1 *766:X *27:7 31.9964 
2 *27:7 *782:A 46.05 
*END

*D_NET *28 0.00599875
*CONN
*I *783:A I *D sky130_fd_sc_hd__clkbuf_1
*I *768:X O *D sky130_fd_sc_hd__and4bb_1
*CAP
1 *783:A 0.00146566
2 *768:X 0.0014074
3 *28:10 0.00287306
4 *783:A *34:7 0.000195474
5 *772:A *783:A 5.71472e-05
*RES
1 *768:X *28:10 43.1571 
2 *28:10 *783:A 35.3179 
*END

*D_NET *29 0.00683993
*CONN
*I *784:A I *D sky130_fd_sc_hd__clkbuf_1
*I *769:X O *D sky130_fd_sc_hd__and4bb_1
*CAP
1 *784:A 0.000880344
2 *769:X 0.00253962
3 *29:7 0.00341997
*RES
1 *769:X *29:7 43.0857 
2 *29:7 *784:A 30.0143 
*END

*D_NET *30 0.00295899
*CONN
*I *763:C I *D sky130_fd_sc_hd__and4bb_1
*I *768:B_N I *D sky130_fd_sc_hd__and4bb_1
*I *764:C I *D sky130_fd_sc_hd__and4bb_1
*I *762:X O *D sky130_fd_sc_hd__and4bb_1
*CAP
1 *763:C 0
2 *768:B_N 0.000142582
3 *764:C 0
4 *762:X 0.000344049
5 *30:17 0.00029196
6 *30:10 0.000493428
7 *768:B_N *763:B_N 0.000185403
8 *768:B_N *768:D 0.000189126
9 *30:10 *33:8 2.29112e-05
10 *30:10 *34:8 0.000125542
11 *30:10 *36:9 0.000213988
12 *30:17 *768:D 0.000339656
13 *764:A_N *30:17 0.000184976
14 *768:C *768:B_N 0.000359146
15 *25:5 *30:17 4.37451e-05
16 *25:13 *30:17 2.24804e-05
*RES
1 *762:X *30:10 23.7643 
2 *30:10 *764:C 9.3 
3 *30:10 *30:17 5.07143 
4 *30:17 *768:B_N 14.7821 
5 *30:17 *763:C 9.3 
*END

*D_NET *31 0.00391483
*CONN
*I *767:A_N I *D sky130_fd_sc_hd__and4bb_1
*I *765:B_N I *D sky130_fd_sc_hd__and4bb_1
*I *768:D I *D sky130_fd_sc_hd__and4bb_1
*I *764:X O *D sky130_fd_sc_hd__and4bb_1
*CAP
1 *767:A_N 0
2 *765:B_N 0.000151325
3 *768:D 0.000644973
4 *764:X 0
5 *31:16 0.000462191
6 *31:4 0.000955839
7 *765:B_N *769:C 7.73662e-05
8 *768:D *763:B_N 0.000185403
9 *31:16 *769:C 0.00010094
10 *31:16 *34:8 0.000124203
11 *761:D *765:B_N 0
12 *761:D *31:16 0
13 *768:B_N *768:D 0.000189126
14 *768:C *768:D 7.96867e-05
15 *769:B_N *765:B_N 0.000188586
16 *769:D *765:B_N 0.000186662
17 *19:8 *765:B_N 0
18 *25:5 *768:D 0.00022887
19 *30:17 *768:D 0.000339656
*RES
1 *764:X *31:4 9.3 
2 *31:4 *768:D 20.6571 
3 *31:4 *31:16 10.3929 
4 *31:16 *765:B_N 18.1214 
5 *31:16 *767:A_N 13.8 
*END

*D_NET *32 0.00355733
*CONN
*I *769:A_N I *D sky130_fd_sc_hd__and4bb_1
*I *768:A_N I *D sky130_fd_sc_hd__and4bb_1
*I *767:X O *D sky130_fd_sc_hd__and4bb_1
*CAP
1 *769:A_N 0.000507174
2 *768:A_N 0.000547543
3 *767:X 0
4 *32:4 0.00105472
5 *768:A_N *763:A_N 0.00012249
6 *769:A_N *763:B_N 0.000200406
7 *769:A_N *765:A_N 0.000399841
8 *769:A_N *769:C 2.44318e-05
9 *767:B_N *768:A_N 9.41642e-05
10 *768:C *768:A_N 0.000348727
11 *769:D *769:A_N 5.91452e-05
12 *21:8 *769:A_N 0.000128154
13 *21:17 *769:A_N 7.05375e-05
*RES
1 *767:X *32:4 9.3 
2 *32:4 *768:A_N 27.2464 
3 *32:4 *769:A_N 27.1571 
*END

*D_NET *33 0.00765263
*CONN
*I *760:A_N I *D sky130_fd_sc_hd__and4bb_1
*I *765:A_N I *D sky130_fd_sc_hd__and4bb_1
*I *770:X O *D sky130_fd_sc_hd__clkbuf_1
*CAP
1 *760:A_N 0
2 *765:A_N 0.000341814
3 *770:X 0.00270749
4 *33:8 0.00304931
5 *765:A_N *769:C 0.000155979
6 *764:A_N *33:8 9.58689e-05
7 *764:B_N *765:A_N 6.8255e-05
8 *764:B_N *33:8 9.96487e-05
9 *769:A_N *765:A_N 0.000399841
10 *769:D *765:A_N 0.000142053
11 *19:8 *765:A_N 0.000295405
12 *25:13 *33:8 0.000274058
13 *30:10 *33:8 2.29112e-05
*RES
1 *770:X *33:8 47.7107 
2 *33:8 *765:A_N 23.2643 
3 *33:8 *760:A_N 13.8 
*END

*D_NET *34 0.00789373
*CONN
*I *760:B_N I *D sky130_fd_sc_hd__and4bb_1
*I *769:C I *D sky130_fd_sc_hd__and4bb_1
*I *772:X O *D sky130_fd_sc_hd__clkbuf_1
*CAP
1 *760:B_N 3.20707e-05
2 *769:C 0.000321841
3 *772:X 0.00140686
4 *34:8 0.00175197
5 *34:7 0.00280492
6 *760:B_N *35:17 0.000183711
7 *762:B_N *760:B_N 0.000183711
8 *765:A_N *769:C 0.000155979
9 *765:B_N *769:C 7.73662e-05
10 *769:A_N *769:C 2.44318e-05
11 *769:D *769:C 0.000404707
12 *783:A *34:7 0.000195474
13 *30:10 *34:8 0.000125542
14 *31:16 *769:C 0.00010094
15 *31:16 *34:8 0.000124203
*RES
1 *772:X *34:7 30.7643 
2 *34:7 *34:8 26.5357 
3 *34:8 *769:C 21.9964 
4 *34:8 *760:B_N 15.5679 
*END

*D_NET *35 0.0117261
*CONN
*I *762:C I *D sky130_fd_sc_hd__and4bb_1
*I *760:C I *D sky130_fd_sc_hd__and4bb_1
*I *766:B_N I *D sky130_fd_sc_hd__and4bb_1
*I *773:X O *D sky130_fd_sc_hd__clkbuf_1
*CAP
1 *762:C 0
2 *760:C 1.605e-05
3 *766:B_N 0.000547924
4 *773:X 0.00116671
5 *35:17 0.000991542
6 *35:14 0.00252509
7 *35:7 0.00326423
8 *766:B_N *36:17 2.17257e-05
9 *760:B_N *35:17 0.000183711
10 *762:B_N *760:C 3.49456e-06
11 *762:B_N *766:B_N 6.75952e-05
12 *762:B_N *35:17 5.75688e-05
13 *762:D *35:17 0.000315812
14 *766:C *766:B_N 8.35129e-05
15 *766:D *766:B_N 0.000397413
16 *767:C *35:14 4.87559e-05
17 *18:7 *766:B_N 0.000141941
18 *19:8 *35:14 0
19 *22:5 *35:7 0.00189306
*RES
1 *773:X *35:7 31.5857 
2 *35:7 *35:14 42.9286 
3 *35:14 *35:17 6.30357 
4 *35:17 *766:B_N 18.6036 
5 *35:17 *760:C 9.72857 
6 *35:14 *762:C 9.3 
*END

*D_NET *36 0.00652498
*CONN
*I *763:A_N I *D sky130_fd_sc_hd__and4bb_1
*I *766:A_N I *D sky130_fd_sc_hd__and4bb_1
*I *760:D I *D sky130_fd_sc_hd__and4bb_1
*I *774:X O *D sky130_fd_sc_hd__clkbuf_1
*CAP
1 *763:A_N 4.55906e-05
2 *766:A_N 4.84386e-05
3 *760:D 0
4 *774:X 0.00104068
5 *36:17 0.000372924
6 *36:9 0.000458387
7 *36:8 0.00122017
8 *762:B_N *36:9 0.000655756
9 *762:B_N *36:17 4.63219e-05
10 *766:B_N *36:17 2.17257e-05
11 *766:C *766:A_N 0.000314779
12 *766:C *36:17 0.000251311
13 *767:C *36:8 1.6815e-05
14 *768:A_N *763:A_N 0.00012249
15 *768:C *763:A_N 0.000124157
16 *18:7 *36:17 4.59602e-05
17 *20:11 *766:A_N 0.000313074
18 *20:11 *36:17 0.000137639
19 *24:8 *36:8 0.00107476
20 *30:10 *36:9 0.000213988
*RES
1 *774:X *36:8 44.2286 
2 *36:8 *36:9 6.28571 
3 *36:9 *760:D 9.3 
4 *36:9 *36:17 5.89286 
5 *36:17 *766:A_N 12.3 
6 *36:17 *763:A_N 19.9429 
*END

*D_NET *37 0.0122408
*CONN
*I *763:B_N I *D sky130_fd_sc_hd__and4bb_1
*I *765:C I *D sky130_fd_sc_hd__and4bb_1
*I *775:X O *D sky130_fd_sc_hd__clkbuf_1
*CAP
1 *763:B_N 0.000279739
2 *765:C 0
3 *775:X 0.00287653
4 *37:8 0.00111042
5 *37:7 0.00370721
6 *761:A_N *763:B_N 7.22594e-05
7 *761:A_N *37:8 0.000177948
8 *763:D *763:B_N 8.40601e-05
9 *768:B_N *763:B_N 0.000185403
10 *768:C *763:B_N 3.6236e-05
11 *768:D *763:B_N 0.000185403
12 *769:A_N *763:B_N 0.000200406
13 *777:A *37:7 1.92905e-05
14 *20:12 *763:B_N 0.000214189
15 *20:14 *763:B_N 0.000227729
16 *21:7 *37:7 0.000199601
17 *21:8 *763:B_N 6.7257e-05
18 *21:8 *37:8 0.00139161
19 *21:17 *763:B_N 6.89558e-05
20 *23:8 *37:8 0.0006727
21 *26:9 *37:7 5.41609e-05
22 *26:9 *37:8 0.000409699
*RES
1 *775:X *37:7 48.425 
2 *37:7 *37:8 32.6071 
3 *37:8 *765:C 13.8 
4 *37:8 *763:B_N 24.1929 
*END
