*SPEF "ieee 1481-1999"
*DESIGN "netlist_1"
*DATE "22:14:25 Sunday July 21, 2024"
*VENDOR "The OpenROAD Project"
*PROGRAM "OpenROAD"
*VERSION "d423155d69de7f683a23f6916ead418a615ad4ad"
*DESIGN_FLOW "NAME_SCOPE LOCAL" "PIN_CAP NONE"
*DIVIDER /
*DELIMITER :
*BUS_DELIMITER []
*T_UNIT 1 NS
*C_UNIT 1 PF
*R_UNIT 1 OHM
*L_UNIT 1 HENRY

*NAME_MAP
*3 clk
*4 in0
*5 in1
*6 in10
*7 in11
*8 in12
*9 in13
*10 in14
*11 in15
*12 in16
*13 in17
*14 in18
*15 in19
*16 in2
*17 in20
*18 in21
*19 in22
*20 in23
*21 in24
*22 in3
*23 in4
*24 in5
*25 in6
*26 in7
*27 in8
*28 in9
*29 out0
*30 out1
*31 out10
*32 out11
*33 out12
*34 out13
*35 out14
*36 out15
*37 out16
*38 out17
*39 out18
*40 out19
*41 out2
*42 out20
*43 out21
*44 out22
*45 out23
*46 out24
*47 out3
*48 out4
*49 out5
*50 out6
*51 out7
*52 out8
*53 out9
*54 rst
*55 clknet_0_clk
*56 clknet_0_net165
*57 clknet_0_net167
*58 clknet_0_net168
*59 clknet_0_net170
*60 clknet_0_net171
*61 clknet_0_net198
*62 clknet_0_net202
*63 clknet_0_net205
*64 clknet_0_net207
*65 clknet_0_net208
*66 clknet_0_net211
*67 clknet_0_net213
*68 clknet_0_net223
*69 clknet_0_net233
*70 clknet_0_net238
*71 clknet_0_net295
*72 clknet_0_net313
*73 clknet_0_net324
*74 clknet_0_net327
*75 clknet_0_net331
*76 clknet_0_net341
*77 clknet_0_net358
*78 clknet_0_net369
*79 clknet_0_net388
*80 clknet_0_net389
*81 clknet_0_net390
*82 clknet_0_net395
*83 clknet_0_net398
*84 clknet_0_net405
*85 clknet_0_net416
*86 clknet_0_net422
*87 clknet_0_net425
*88 clknet_0_net426
*89 clknet_0_net428
*90 clknet_0_net430
*91 clknet_0_net431
*92 clknet_0_net432
*93 clknet_0_net435
*94 clknet_0_net446
*95 clknet_0_net463
*96 clknet_0_net472
*97 clknet_0_net475
*98 clknet_0_net476
*99 clknet_0_net478
*100 clknet_0_net508
*101 clknet_0_net513
*102 clknet_0_net519
*103 clknet_0_net529
*104 clknet_0_net531
*105 clknet_0_net544
*106 clknet_0_net547
*107 clknet_0_net549
*108 clknet_0_net550
*109 clknet_0_net553
*110 clknet_0_net557
*111 clknet_0_net558
*112 clknet_0_net561
*113 clknet_0_net562
*114 clknet_0_net565
*115 clknet_0_net576
*116 clknet_0_net585
*117 clknet_0_net586
*118 clknet_0_net587
*119 clknet_0_net589
*120 clknet_0_net593
*121 clknet_0_net594
*122 clknet_0_net595
*123 clknet_0_net596
*124 clknet_0_net602
*125 clknet_0_net603
*126 clknet_0_net605
*127 clknet_0_net608
*128 clknet_0_net609
*129 clknet_0_net612
*130 clknet_0_net621
*131 clknet_0_net622
*132 clknet_0_net630
*133 clknet_0_net631
*134 clknet_0_net634
*135 clknet_0_net637
*136 clknet_0_net638
*137 clknet_0_net640
*138 clknet_0_net655
*139 clknet_0_net659
*140 clknet_0_net664
*141 clknet_0_net673
*142 clknet_0_net677
*143 clknet_0_net694
*144 clknet_0_net702
*145 clknet_0_net718
*146 clknet_0_net756
*147 clknet_0_net806
*148 clknet_0_net808
*149 clknet_0_net823
*150 clknet_0_net824
*151 clknet_0_net842
*152 clknet_0_net843
*153 clknet_0_net844
*154 clknet_0_net860
*155 clknet_0_net861
*156 clknet_0_net862
*157 clknet_0_net897
*158 clknet_0_net898
*159 clknet_0_net919
*160 clknet_0_net920
*161 clknet_0_net947
*162 clknet_0_net950
*163 clknet_0_net951
*164 clknet_0_net956
*165 clknet_0_net958
*166 clknet_0_net966
*167 clknet_0_net970
*168 clknet_1_0__leaf_net165
*169 clknet_1_0__leaf_net167
*170 clknet_1_0__leaf_net168
*171 clknet_1_0__leaf_net170
*172 clknet_1_0__leaf_net171
*173 clknet_1_0__leaf_net198
*174 clknet_1_0__leaf_net202
*175 clknet_1_0__leaf_net205
*176 clknet_1_0__leaf_net207
*177 clknet_1_0__leaf_net208
*178 clknet_1_0__leaf_net211
*179 clknet_1_0__leaf_net213
*180 clknet_1_0__leaf_net223
*181 clknet_1_0__leaf_net233
*182 clknet_1_0__leaf_net238
*183 clknet_1_0__leaf_net295
*184 clknet_1_0__leaf_net313
*185 clknet_1_0__leaf_net324
*186 clknet_1_0__leaf_net327
*187 clknet_1_0__leaf_net331
*188 clknet_1_0__leaf_net341
*189 clknet_1_0__leaf_net358
*190 clknet_1_0__leaf_net369
*191 clknet_1_0__leaf_net388
*192 clknet_1_0__leaf_net389
*193 clknet_1_0__leaf_net390
*194 clknet_1_0__leaf_net395
*195 clknet_1_0__leaf_net398
*196 clknet_1_0__leaf_net405
*197 clknet_1_0__leaf_net416
*198 clknet_1_0__leaf_net422
*199 clknet_1_0__leaf_net425
*200 clknet_1_0__leaf_net426
*201 clknet_1_0__leaf_net428
*202 clknet_1_0__leaf_net430
*203 clknet_1_0__leaf_net431
*204 clknet_1_0__leaf_net432
*205 clknet_1_0__leaf_net435
*206 clknet_1_0__leaf_net446
*207 clknet_1_0__leaf_net463
*208 clknet_1_0__leaf_net472
*209 clknet_1_0__leaf_net475
*210 clknet_1_0__leaf_net476
*211 clknet_1_0__leaf_net478
*212 clknet_1_0__leaf_net508
*213 clknet_1_0__leaf_net513
*214 clknet_1_0__leaf_net519
*215 clknet_1_0__leaf_net529
*216 clknet_1_0__leaf_net531
*217 clknet_1_0__leaf_net544
*218 clknet_1_0__leaf_net547
*219 clknet_1_0__leaf_net549
*220 clknet_1_0__leaf_net550
*221 clknet_1_0__leaf_net553
*222 clknet_1_0__leaf_net557
*223 clknet_1_0__leaf_net558
*224 clknet_1_0__leaf_net561
*225 clknet_1_0__leaf_net562
*226 clknet_1_0__leaf_net565
*227 clknet_1_0__leaf_net576
*228 clknet_1_0__leaf_net585
*229 clknet_1_0__leaf_net586
*230 clknet_1_0__leaf_net587
*231 clknet_1_0__leaf_net589
*232 clknet_1_0__leaf_net593
*233 clknet_1_0__leaf_net594
*234 clknet_1_0__leaf_net595
*235 clknet_1_0__leaf_net596
*236 clknet_1_0__leaf_net602
*237 clknet_1_0__leaf_net603
*238 clknet_1_0__leaf_net605
*239 clknet_1_0__leaf_net608
*240 clknet_1_0__leaf_net609
*241 clknet_1_0__leaf_net612
*242 clknet_1_0__leaf_net621
*243 clknet_1_0__leaf_net622
*244 clknet_1_0__leaf_net630
*245 clknet_1_0__leaf_net631
*246 clknet_1_0__leaf_net634
*247 clknet_1_0__leaf_net637
*248 clknet_1_0__leaf_net638
*249 clknet_1_0__leaf_net640
*250 clknet_1_0__leaf_net655
*251 clknet_1_0__leaf_net659
*252 clknet_1_0__leaf_net664
*253 clknet_1_0__leaf_net673
*254 clknet_1_0__leaf_net677
*255 clknet_1_0__leaf_net694
*256 clknet_1_0__leaf_net702
*257 clknet_1_0__leaf_net718
*258 clknet_1_0__leaf_net756
*259 clknet_1_0__leaf_net806
*260 clknet_1_0__leaf_net808
*261 clknet_1_0__leaf_net823
*262 clknet_1_0__leaf_net824
*263 clknet_1_0__leaf_net842
*264 clknet_1_0__leaf_net843
*265 clknet_1_0__leaf_net844
*266 clknet_1_0__leaf_net860
*267 clknet_1_0__leaf_net861
*268 clknet_1_0__leaf_net862
*269 clknet_1_0__leaf_net897
*270 clknet_1_0__leaf_net898
*271 clknet_1_0__leaf_net919
*272 clknet_1_0__leaf_net920
*273 clknet_1_0__leaf_net947
*274 clknet_1_0__leaf_net950
*275 clknet_1_0__leaf_net951
*276 clknet_1_0__leaf_net956
*277 clknet_1_0__leaf_net958
*278 clknet_1_0__leaf_net966
*279 clknet_1_0__leaf_net970
*280 clknet_1_1__leaf_net165
*281 clknet_1_1__leaf_net167
*282 clknet_1_1__leaf_net168
*283 clknet_1_1__leaf_net170
*284 clknet_1_1__leaf_net171
*285 clknet_1_1__leaf_net198
*286 clknet_1_1__leaf_net202
*287 clknet_1_1__leaf_net205
*288 clknet_1_1__leaf_net207
*289 clknet_1_1__leaf_net208
*290 clknet_1_1__leaf_net211
*291 clknet_1_1__leaf_net213
*292 clknet_1_1__leaf_net223
*293 clknet_1_1__leaf_net233
*294 clknet_1_1__leaf_net238
*295 clknet_1_1__leaf_net295
*296 clknet_1_1__leaf_net313
*297 clknet_1_1__leaf_net324
*298 clknet_1_1__leaf_net327
*299 clknet_1_1__leaf_net331
*300 clknet_1_1__leaf_net341
*301 clknet_1_1__leaf_net358
*302 clknet_1_1__leaf_net369
*303 clknet_1_1__leaf_net388
*304 clknet_1_1__leaf_net389
*305 clknet_1_1__leaf_net390
*306 clknet_1_1__leaf_net395
*307 clknet_1_1__leaf_net398
*308 clknet_1_1__leaf_net405
*309 clknet_1_1__leaf_net416
*310 clknet_1_1__leaf_net422
*311 clknet_1_1__leaf_net425
*312 clknet_1_1__leaf_net426
*313 clknet_1_1__leaf_net428
*314 clknet_1_1__leaf_net430
*315 clknet_1_1__leaf_net431
*316 clknet_1_1__leaf_net432
*317 clknet_1_1__leaf_net435
*318 clknet_1_1__leaf_net446
*319 clknet_1_1__leaf_net463
*320 clknet_1_1__leaf_net472
*321 clknet_1_1__leaf_net475
*322 clknet_1_1__leaf_net476
*323 clknet_1_1__leaf_net478
*324 clknet_1_1__leaf_net508
*325 clknet_1_1__leaf_net513
*326 clknet_1_1__leaf_net519
*327 clknet_1_1__leaf_net529
*328 clknet_1_1__leaf_net531
*329 clknet_1_1__leaf_net544
*330 clknet_1_1__leaf_net547
*331 clknet_1_1__leaf_net549
*332 clknet_1_1__leaf_net550
*333 clknet_1_1__leaf_net553
*334 clknet_1_1__leaf_net557
*335 clknet_1_1__leaf_net558
*336 clknet_1_1__leaf_net561
*337 clknet_1_1__leaf_net562
*338 clknet_1_1__leaf_net565
*339 clknet_1_1__leaf_net576
*340 clknet_1_1__leaf_net585
*341 clknet_1_1__leaf_net586
*342 clknet_1_1__leaf_net587
*343 clknet_1_1__leaf_net589
*344 clknet_1_1__leaf_net593
*345 clknet_1_1__leaf_net594
*346 clknet_1_1__leaf_net595
*347 clknet_1_1__leaf_net596
*348 clknet_1_1__leaf_net602
*349 clknet_1_1__leaf_net603
*350 clknet_1_1__leaf_net605
*351 clknet_1_1__leaf_net608
*352 clknet_1_1__leaf_net609
*353 clknet_1_1__leaf_net612
*354 clknet_1_1__leaf_net621
*355 clknet_1_1__leaf_net622
*356 clknet_1_1__leaf_net630
*357 clknet_1_1__leaf_net631
*358 clknet_1_1__leaf_net634
*359 clknet_1_1__leaf_net637
*360 clknet_1_1__leaf_net638
*361 clknet_1_1__leaf_net640
*362 clknet_1_1__leaf_net655
*363 clknet_1_1__leaf_net659
*364 clknet_1_1__leaf_net664
*365 clknet_1_1__leaf_net673
*366 clknet_1_1__leaf_net677
*367 clknet_1_1__leaf_net694
*368 clknet_1_1__leaf_net702
*369 clknet_1_1__leaf_net718
*370 clknet_1_1__leaf_net756
*371 clknet_1_1__leaf_net806
*372 clknet_1_1__leaf_net808
*373 clknet_1_1__leaf_net823
*374 clknet_1_1__leaf_net824
*375 clknet_1_1__leaf_net842
*376 clknet_1_1__leaf_net843
*377 clknet_1_1__leaf_net844
*378 clknet_1_1__leaf_net860
*379 clknet_1_1__leaf_net861
*380 clknet_1_1__leaf_net862
*381 clknet_1_1__leaf_net897
*382 clknet_1_1__leaf_net898
*383 clknet_1_1__leaf_net919
*384 clknet_1_1__leaf_net920
*385 clknet_1_1__leaf_net947
*386 clknet_1_1__leaf_net950
*387 clknet_1_1__leaf_net951
*388 clknet_1_1__leaf_net956
*389 clknet_1_1__leaf_net958
*390 clknet_1_1__leaf_net966
*391 clknet_1_1__leaf_net970
*392 clknet_4_0_0_clk
*393 clknet_4_10_0_clk
*394 clknet_4_11_0_clk
*395 clknet_4_12_0_clk
*396 clknet_4_13_0_clk
*397 clknet_4_14_0_clk
*398 clknet_4_15_0_clk
*399 clknet_4_1_0_clk
*400 clknet_4_2_0_clk
*401 clknet_4_3_0_clk
*402 clknet_4_4_0_clk
*403 clknet_4_5_0_clk
*404 clknet_4_6_0_clk
*405 clknet_4_7_0_clk
*406 clknet_4_8_0_clk
*407 clknet_4_9_0_clk
*408 net0
*409 net1
*410 net10
*411 net100
*412 net1000
*413 net1001
*414 net1002
*415 net1003
*416 net1004
*417 net1005
*418 net1006
*419 net1007
*420 net1008
*421 net1009
*422 net101
*423 net1010
*424 net1011
*425 net1012
*426 net1013
*427 net1014
*428 net1015
*429 net1016
*430 net1017
*431 net1018
*432 net1019
*433 net102
*434 net1020
*435 net1021
*436 net1022
*437 net1023
*438 net1024
*439 net1025
*440 net1026
*441 net1027
*442 net1028
*443 net1029
*444 net103
*445 net1030
*446 net1031
*447 net1032
*448 net1033
*449 net1034
*450 net104
*451 net105
*452 net106
*453 net107
*454 net108
*455 net109
*456 net11
*457 net110
*458 net111
*459 net112
*460 net113
*461 net114
*462 net115
*463 net116
*464 net117
*465 net118
*466 net119
*467 net12
*468 net120
*469 net121
*470 net122
*471 net123
*472 net124
*473 net125
*474 net126
*475 net127
*476 net128
*477 net129
*478 net13
*479 net130
*480 net131
*481 net132
*482 net133
*483 net134
*484 net135
*485 net136
*486 net137
*487 net138
*488 net139
*489 net14
*490 net140
*491 net141
*492 net142
*493 net143
*494 net144
*495 net145
*496 net146
*497 net147
*498 net148
*499 net149
*500 net15
*501 net150
*502 net151
*503 net152
*504 net153
*505 net154
*506 net155
*507 net156
*508 net157
*509 net158
*510 net159
*511 net16
*512 net160
*513 net161
*514 net162
*515 net163
*516 net164
*517 net165
*518 net166
*519 net167
*520 net168
*521 net169
*522 net17
*523 net170
*524 net171
*525 net172
*526 net173
*527 net174
*528 net175
*529 net176
*530 net177
*531 net178
*532 net179
*533 net18
*534 net180
*535 net181
*536 net182
*537 net183
*538 net184
*539 net185
*540 net186
*541 net187
*542 net188
*543 net189
*544 net19
*545 net190
*546 net191
*547 net192
*548 net193
*549 net194
*550 net195
*551 net196
*552 net197
*553 net198
*554 net199
*555 net2
*556 net20
*557 net200
*558 net201
*559 net202
*560 net203
*561 net204
*562 net205
*563 net206
*564 net207
*565 net208
*566 net209
*567 net21
*568 net210
*569 net211
*570 net212
*571 net213
*572 net214
*573 net215
*574 net216
*575 net217
*576 net218
*577 net219
*578 net22
*579 net220
*580 net221
*581 net222
*582 net223
*583 net224
*584 net225
*585 net226
*586 net227
*587 net228
*588 net229
*589 net23
*590 net230
*591 net231
*592 net232
*593 net233
*594 net234
*595 net235
*596 net236
*597 net237
*598 net238
*599 net239
*600 net24
*601 net240
*602 net241
*603 net242
*604 net243
*605 net244
*606 net245
*607 net246
*608 net247
*609 net248
*610 net249
*611 net25
*612 net250
*613 net251
*614 net252
*615 net253
*616 net254
*617 net255
*618 net256
*619 net257
*620 net258
*621 net259
*622 net26
*623 net260
*624 net261
*625 net262
*626 net263
*627 net264
*628 net265
*629 net266
*630 net267
*631 net268
*632 net269
*633 net27
*634 net270
*635 net271
*636 net272
*637 net273
*638 net274
*639 net275
*640 net276
*641 net277
*642 net278
*643 net279
*644 net28
*645 net280
*646 net281
*647 net282
*648 net283
*649 net284
*650 net285
*651 net286
*652 net287
*653 net288
*654 net289
*655 net29
*656 net290
*657 net291
*658 net292
*659 net293
*660 net294
*661 net295
*662 net296
*663 net297
*664 net298
*665 net299
*666 net3
*667 net30
*668 net300
*669 net301
*670 net302
*671 net303
*672 net304
*673 net305
*674 net306
*675 net307
*676 net308
*677 net309
*678 net31
*679 net310
*680 net311
*681 net312
*682 net313
*683 net314
*684 net315
*685 net316
*686 net317
*687 net318
*688 net319
*689 net32
*690 net320
*691 net321
*692 net322
*693 net323
*694 net324
*695 net325
*696 net326
*697 net327
*698 net328
*699 net329
*700 net33
*701 net330
*702 net331
*703 net332
*704 net333
*705 net334
*706 net335
*707 net336
*708 net337
*709 net338
*710 net339
*711 net34
*712 net340
*713 net341
*714 net342
*715 net343
*716 net344
*717 net345
*718 net346
*719 net347
*720 net348
*721 net349
*722 net35
*723 net350
*724 net351
*725 net352
*726 net353
*727 net354
*728 net355
*729 net356
*730 net357
*731 net358
*732 net359
*733 net36
*734 net360
*735 net361
*736 net362
*737 net363
*738 net364
*739 net365
*740 net366
*741 net367
*742 net368
*743 net369
*744 net37
*745 net370
*746 net371
*747 net372
*748 net373
*749 net374
*750 net375
*751 net376
*752 net377
*753 net378
*754 net379
*755 net38
*756 net380
*757 net381
*758 net382
*759 net383
*760 net384
*761 net385
*762 net386
*763 net387
*764 net388
*765 net389
*766 net39
*767 net390
*768 net391
*769 net392
*770 net393
*771 net394
*772 net395
*773 net396
*774 net397
*775 net398
*776 net399
*777 net4
*778 net40
*779 net400
*780 net401
*781 net402
*782 net403
*783 net404
*784 net405
*785 net406
*786 net407
*787 net408
*788 net409
*789 net41
*790 net410
*791 net411
*792 net412
*793 net413
*794 net414
*795 net415
*796 net416
*797 net417
*798 net418
*799 net419
*800 net42
*801 net420
*802 net421
*803 net422
*804 net423
*805 net424
*806 net425
*807 net426
*808 net427
*809 net428
*810 net429
*811 net43
*812 net430
*813 net431
*814 net432
*815 net433
*816 net434
*817 net435
*818 net436
*819 net437
*820 net438
*821 net439
*822 net44
*823 net440
*824 net441
*825 net442
*826 net443
*827 net444
*828 net445
*829 net446
*830 net447
*831 net448
*832 net449
*833 net45
*834 net450
*835 net451
*836 net452
*837 net453
*838 net454
*839 net455
*840 net456
*841 net457
*842 net458
*843 net459
*844 net46
*845 net460
*846 net461
*847 net462
*848 net463
*849 net464
*850 net465
*851 net466
*852 net467
*853 net468
*854 net469
*855 net47
*856 net470
*857 net471
*858 net472
*859 net473
*860 net474
*861 net475
*862 net476
*863 net477
*864 net478
*865 net479
*866 net48
*867 net480
*868 net481
*869 net482
*870 net483
*871 net484
*872 net485
*873 net486
*874 net487
*875 net488
*876 net489
*877 net49
*878 net490
*879 net491
*880 net492
*881 net493
*882 net494
*883 net495
*884 net496
*885 net497
*886 net498
*887 net499
*888 net5
*889 net50
*890 net500
*891 net501
*892 net502
*893 net503
*894 net504
*895 net505
*896 net506
*897 net507
*898 net508
*899 net509
*900 net51
*901 net510
*902 net511
*903 net512
*904 net513
*905 net514
*906 net515
*907 net516
*908 net517
*909 net518
*910 net519
*911 net52
*912 net520
*913 net521
*914 net522
*915 net523
*916 net524
*917 net525
*918 net526
*919 net527
*920 net528
*921 net529
*922 net53
*923 net530
*924 net531
*925 net532
*926 net533
*927 net534
*928 net535
*929 net536
*930 net537
*931 net538
*932 net539
*933 net54
*934 net540
*935 net541
*936 net542
*937 net543
*938 net544
*939 net545
*940 net546
*941 net547
*942 net548
*943 net549
*944 net55
*945 net550
*946 net551
*947 net552
*948 net553
*949 net554
*950 net555
*951 net556
*952 net557
*953 net558
*954 net559
*955 net56
*956 net560
*957 net561
*958 net562
*959 net563
*960 net564
*961 net565
*962 net566
*963 net567
*964 net568
*965 net569
*966 net57
*967 net570
*968 net571
*969 net572
*970 net573
*971 net574
*972 net575
*973 net576
*974 net577
*975 net578
*976 net579
*977 net58
*978 net580
*979 net581
*980 net582
*981 net583
*982 net584
*983 net585
*984 net586
*985 net587
*986 net588
*987 net589
*988 net59
*989 net590
*990 net591
*991 net592
*992 net593
*993 net594
*994 net595
*995 net596
*996 net597
*997 net598
*998 net599
*999 net6
*1000 net60
*1001 net600
*1002 net601
*1003 net602
*1004 net603
*1005 net604
*1006 net605
*1007 net606
*1008 net607
*1009 net608
*1010 net609
*1011 net61
*1012 net610
*1013 net611
*1014 net612
*1015 net613
*1016 net614
*1017 net615
*1018 net616
*1019 net617
*1020 net618
*1021 net619
*1022 net62
*1023 net620
*1024 net621
*1025 net622
*1026 net623
*1027 net624
*1028 net625
*1029 net626
*1030 net627
*1031 net628
*1032 net629
*1033 net63
*1034 net630
*1035 net631
*1036 net632
*1037 net633
*1038 net634
*1039 net635
*1040 net636
*1041 net637
*1042 net638
*1043 net639
*1044 net64
*1045 net640
*1046 net641
*1047 net642
*1048 net643
*1049 net644
*1050 net645
*1051 net646
*1052 net647
*1053 net648
*1054 net649
*1055 net65
*1056 net650
*1057 net651
*1058 net652
*1059 net653
*1060 net654
*1061 net655
*1062 net656
*1063 net657
*1064 net658
*1065 net659
*1066 net66
*1067 net660
*1068 net661
*1069 net662
*1070 net663
*1071 net664
*1072 net665
*1073 net666
*1074 net667
*1075 net668
*1076 net669
*1077 net67
*1078 net670
*1079 net671
*1080 net672
*1081 net673
*1082 net674
*1083 net675
*1084 net676
*1085 net677
*1086 net678
*1087 net679
*1088 net68
*1089 net680
*1090 net681
*1091 net682
*1092 net683
*1093 net684
*1094 net685
*1095 net686
*1096 net687
*1097 net688
*1098 net689
*1099 net69
*1100 net690
*1101 net691
*1102 net692
*1103 net693
*1104 net694
*1105 net695
*1106 net696
*1107 net697
*1108 net698
*1109 net699
*1110 net7
*1111 net70
*1112 net700
*1113 net701
*1114 net702
*1115 net703
*1116 net704
*1117 net705
*1118 net706
*1119 net707
*1120 net708
*1121 net709
*1122 net71
*1123 net710
*1124 net711
*1125 net712
*1126 net713
*1127 net714
*1128 net715
*1129 net716
*1130 net717
*1131 net718
*1132 net719
*1133 net72
*1134 net720
*1135 net721
*1136 net722
*1137 net723
*1138 net724
*1139 net725
*1140 net726
*1141 net727
*1142 net728
*1143 net729
*1144 net73
*1145 net730
*1146 net731
*1147 net732
*1148 net733
*1149 net734
*1150 net735
*1151 net736
*1152 net737
*1153 net738
*1154 net739
*1155 net74
*1156 net740
*1157 net741
*1158 net742
*1159 net743
*1160 net744
*1161 net745
*1162 net746
*1163 net747
*1164 net748
*1165 net749
*1166 net75
*1167 net750
*1168 net751
*1169 net752
*1170 net753
*1171 net754
*1172 net755
*1173 net756
*1174 net757
*1175 net758
*1176 net759
*1177 net76
*1178 net760
*1179 net761
*1180 net762
*1181 net763
*1182 net764
*1183 net765
*1184 net766
*1185 net767
*1186 net768
*1187 net769
*1188 net77
*1189 net770
*1190 net771
*1191 net772
*1192 net773
*1193 net774
*1194 net775
*1195 net776
*1196 net777
*1197 net778
*1198 net779
*1199 net78
*1200 net780
*1201 net781
*1202 net782
*1203 net783
*1204 net784
*1205 net785
*1206 net786
*1207 net787
*1208 net788
*1209 net789
*1210 net79
*1211 net790
*1212 net791
*1213 net792
*1214 net793
*1215 net794
*1216 net795
*1217 net796
*1218 net797
*1219 net798
*1220 net799
*1221 net8
*1222 net80
*1223 net800
*1224 net801
*1225 net802
*1226 net803
*1227 net804
*1228 net805
*1229 net806
*1230 net807
*1231 net808
*1232 net809
*1233 net81
*1234 net810
*1235 net811
*1236 net812
*1237 net813
*1238 net814
*1239 net815
*1240 net816
*1241 net817
*1242 net818
*1243 net819
*1244 net82
*1245 net820
*1246 net821
*1247 net822
*1248 net823
*1249 net824
*1250 net825
*1251 net826
*1252 net827
*1253 net828
*1254 net829
*1255 net83
*1256 net830
*1257 net831
*1258 net832
*1259 net833
*1260 net834
*1261 net835
*1262 net836
*1263 net837
*1264 net838
*1265 net839
*1266 net84
*1267 net840
*1268 net841
*1269 net842
*1270 net843
*1271 net844
*1272 net845
*1273 net846
*1274 net847
*1275 net848
*1276 net849
*1277 net85
*1278 net850
*1279 net851
*1280 net852
*1281 net853
*1282 net854
*1283 net855
*1284 net856
*1285 net857
*1286 net858
*1287 net859
*1288 net86
*1289 net860
*1290 net861
*1291 net862
*1292 net863
*1293 net864
*1294 net865
*1295 net866
*1296 net867
*1297 net868
*1298 net869
*1299 net87
*1300 net870
*1301 net871
*1302 net872
*1303 net873
*1304 net874
*1305 net875
*1306 net876
*1307 net877
*1308 net878
*1309 net879
*1310 net88
*1311 net880
*1312 net881
*1313 net882
*1314 net883
*1315 net884
*1316 net885
*1317 net886
*1318 net887
*1319 net888
*1320 net889
*1321 net89
*1322 net890
*1323 net891
*1324 net892
*1325 net893
*1326 net894
*1327 net895
*1328 net896
*1329 net897
*1330 net898
*1331 net899
*1332 net9
*1333 net90
*1334 net900
*1335 net901
*1336 net902
*1337 net903
*1338 net904
*1339 net905
*1340 net906
*1341 net907
*1342 net908
*1343 net909
*1344 net91
*1345 net910
*1346 net911
*1347 net912
*1348 net913
*1349 net914
*1350 net915
*1351 net916
*1352 net917
*1353 net918
*1354 net919
*1355 net92
*1356 net920
*1357 net921
*1358 net922
*1359 net923
*1360 net924
*1361 net925
*1362 net926
*1363 net927
*1364 net928
*1365 net929
*1366 net93
*1367 net930
*1368 net931
*1369 net932
*1370 net933
*1371 net934
*1372 net935
*1373 net936
*1374 net937
*1375 net938
*1376 net939
*1377 net94
*1378 net940
*1379 net941
*1380 net942
*1381 net943
*1382 net944
*1383 net945
*1384 net946
*1385 net947
*1386 net948
*1387 net949
*1388 net95
*1389 net950
*1390 net951
*1391 net952
*1392 net953
*1393 net954
*1394 net955
*1395 net956
*1396 net957
*1397 net958
*1398 net959
*1399 net96
*1400 net960
*1401 net961
*1402 net962
*1403 net963
*1404 net964
*1405 net965
*1406 net966
*1407 net967
*1408 net968
*1409 net969
*1410 net97
*1411 net970
*1412 net971
*1413 net972
*1414 net973
*1415 net974
*1416 net975
*1417 net976
*1418 net977
*1419 net978
*1420 net979
*1421 net98
*1422 net980
*1423 net981
*1424 net982
*1425 net983
*1426 net984
*1427 net985
*1428 net986
*1429 net987
*1430 net988
*1431 net989
*1432 net99
*1433 net990
*1434 net991
*1435 net992
*1436 net993
*1437 net994
*1438 net995
*1439 net996
*1440 net997
*1441 net998
*1442 net999
*1443 ANTENNA_1
*1444 ANTENNA_c102_X
*1445 ANTENNA_c104_A
*1446 ANTENNA_c104_B
*1447 ANTENNA_c105_A
*1448 ANTENNA_c105_Y
*1449 ANTENNA_c106_B
*1450 ANTENNA_c108_X
*1451 ANTENNA_c111_A
*1452 ANTENNA_c111_B
*1453 ANTENNA_c111_X
*1454 ANTENNA_c114_X
*1455 ANTENNA_c115_A
*1456 ANTENNA_c116_A
*1457 ANTENNA_c116_B_N
*1458 ANTENNA_c117_A
*1459 ANTENNA_c117_B_N
*1460 ANTENNA_c123_A
*1461 ANTENNA_c123_B
*1462 ANTENNA_c124_A1
*1463 ANTENNA_c124_S0
*1464 ANTENNA_c124_S1
*1465 ANTENNA_c125_A
*1466 ANTENNA_c129_S0
*1467 ANTENNA_c129_S1
*1468 ANTENNA_c131_A3
*1469 ANTENNA_c131_S0
*1470 ANTENNA_c132_B
*1471 ANTENNA_c132_X
*1472 ANTENNA_c133_A
*1473 ANTENNA_c133_B
*1474 ANTENNA_c133_Y
*1475 ANTENNA_c134_A
*1476 ANTENNA_c134_B
*1477 ANTENNA_c134_X
*1478 ANTENNA_c135_A
*1479 ANTENNA_c135_B_N
*1480 ANTENNA_c136_B
*1481 ANTENNA_c137_A
*1482 ANTENNA_c138_B
*1483 ANTENNA_c139_A
*1484 ANTENNA_c139_Y
*1485 ANTENNA_c140_B
*1486 ANTENNA_c140_Y
*1487 ANTENNA_c141_B
*1488 ANTENNA_c141_Y
*1489 ANTENNA_c142_B
*1490 ANTENNA_c142_Y
*1491 ANTENNA_c143_A
*1492 ANTENNA_c143_B
*1493 ANTENNA_c144_Y
*1494 ANTENNA_c145_B
*1495 ANTENNA_c145_X
*1496 ANTENNA_c146_A
*1497 ANTENNA_c146_B
*1498 ANTENNA_c146_C
*1499 ANTENNA_c147_B_N
*1500 ANTENNA_c148_A_N
*1501 ANTENNA_c148_B
*1502 ANTENNA_c148_C
*1503 ANTENNA_c149_A
*1504 ANTENNA_c149_B
*1505 ANTENNA_c149_C
*1506 ANTENNA_c149_Y
*1507 ANTENNA_c150_B
*1508 ANTENNA_c151_A
*1509 ANTENNA_c151_B
*1510 ANTENNA_c152_A2
*1511 ANTENNA_c152_S0
*1512 ANTENNA_c152_S1
*1513 ANTENNA_c152_X
*1514 ANTENNA_c153_A3
*1515 ANTENNA_c153_S0
*1516 ANTENNA_c153_S1
*1517 ANTENNA_c154_A_N
*1518 ANTENNA_c154_B
*1519 ANTENNA_c154_Y
*1520 ANTENNA_c156_B
*1521 ANTENNA_c157_B
*1522 ANTENNA_c158_B
*1523 ANTENNA_c158_X
*1524 ANTENNA_c159_A
*1525 ANTENNA_c160_A
*1526 ANTENNA_c160_X
*1527 ANTENNA_c161_D_N
*1528 ANTENNA_c161_X
*1529 ANTENNA_c162_X
*1530 ANTENNA_c163_A
*1531 ANTENNA_c163_B_N
*1532 ANTENNA_c164_A
*1533 ANTENNA_c164_B
*1534 ANTENNA_c164_X
*1535 ANTENNA_c165_B_N
*1536 ANTENNA_c166_B
*1537 ANTENNA_c167_B
*1538 ANTENNA_c168_A2
*1539 ANTENNA_c168_A3
*1540 ANTENNA_c170_B
*1541 ANTENNA_c170_D_N
*1542 ANTENNA_c171_B
*1543 ANTENNA_c171_D_N
*1544 ANTENNA_c171_X
*1545 ANTENNA_c172_A2
*1546 ANTENNA_c172_B1
*1547 ANTENNA_c172_C1
*1548 ANTENNA_c172_D1
*1549 ANTENNA_c173_A1
*1550 ANTENNA_c173_B1
*1551 ANTENNA_c173_C1
*1552 ANTENNA_c174_A3
*1553 ANTENNA_c174_S1
*1554 ANTENNA_c174_X
*1555 ANTENNA_c175_CLK
*1556 ANTENNA_c175_Q
*1557 ANTENNA_c175_Q_N
*1558 ANTENNA_c175_RESET_B
*1559 ANTENNA_c175_SCE
*1560 ANTENNA_c176_A
*1561 ANTENNA_c178_C_N
*1562 ANTENNA_c179_B
*1563 ANTENNA_c180_1_A
*1564 ANTENNA_c185_CLK_N
*1565 ANTENNA_c185_SCD
*1566 ANTENNA_c187_5_A
*1567 ANTENNA_c187_6_A
*1568 ANTENNA_c187_7_A
*1569 ANTENNA_c192_B_N
*1570 ANTENNA_c193_C1
*1571 ANTENNA_c194_C1
*1572 ANTENNA_c194_D1
*1573 ANTENNA_c196_B1
*1574 ANTENNA_c198_X
*1575 ANTENNA_c199_B_N
*1576 ANTENNA_c199_Y
*1577 ANTENNA_c200_C
*1578 ANTENNA_c200_X
*1579 ANTENNA_c201_A_N
*1580 ANTENNA_c201_X
*1581 ANTENNA_c202_A
*1582 ANTENNA_c203_B
*1583 ANTENNA_c203_C_N
*1584 ANTENNA_c203_D_N
*1585 ANTENNA_c204_B
*1586 ANTENNA_c204_C
*1587 ANTENNA_c204_Y
*1588 ANTENNA_c206_CLK_N
*1589 ANTENNA_c206_RESET_B
*1590 ANTENNA_c206_SET_B
*1591 ANTENNA_c207_A_N
*1592 ANTENNA_c207_Y
*1593 ANTENNA_c211_C_N
*1594 ANTENNA_c212_A2
*1595 ANTENNA_c212_A3
*1596 ANTENNA_c213_A2
*1597 ANTENNA_c213_S0
*1598 ANTENNA_c214_A
*1599 ANTENNA_c215_CLK
*1600 ANTENNA_c215_Q
*1601 ANTENNA_c215_Q_N
*1602 ANTENNA_c215_SCE
*1603 ANTENNA_c216_X
*1604 ANTENNA_c217_A0
*1605 ANTENNA_c217_A1
*1606 ANTENNA_c217_A2
*1607 ANTENNA_c217_A3
*1608 ANTENNA_c217_S1
*1609 ANTENNA_c218_A1
*1610 ANTENNA_c219_A1
*1611 ANTENNA_c219_A2
*1612 ANTENNA_c220_A_N
*1613 ANTENNA_c220_B
*1614 ANTENNA_c221_Y
*1615 ANTENNA_c222_B
*1616 ANTENNA_c222_C
*1617 ANTENNA_c224_B
*1618 ANTENNA_c225_A
*1619 ANTENNA_c225_C
*1620 ANTENNA_c227_Y
*1621 ANTENNA_c228_B
*1622 ANTENNA_c231_A1
*1623 ANTENNA_c231_A2
*1624 ANTENNA_c231_A3
*1625 ANTENNA_c232_A3
*1626 ANTENNA_c232_S0
*1627 ANTENNA_c232_S1
*1628 ANTENNA_c234_B
*1629 ANTENNA_c235_A1
*1630 ANTENNA_c235_S1
*1631 ANTENNA_c236_A_N
*1632 ANTENNA_c237_Y
*1633 ANTENNA_c239_B1
*1634 ANTENNA_c239_D1
*1635 ANTENNA_c240_A3
*1636 ANTENNA_c240_S1
*1637 ANTENNA_c241_C1
*1638 ANTENNA_c241_D1
*1639 ANTENNA_c242_A
*1640 ANTENNA_c242_B
*1641 ANTENNA_c243_B
*1642 ANTENNA_c243_C_N
*1643 ANTENNA_c243_X
*1644 ANTENNA_c244_B
*1645 ANTENNA_c245_A_N
*1646 ANTENNA_c246_C
*1647 ANTENNA_c248_B
*1648 ANTENNA_c248_C_N
*1649 ANTENNA_c249_B
*1650 ANTENNA_c250_C_N
*1651 ANTENNA_c251_C1
*1652 ANTENNA_c252_CLK
*1653 ANTENNA_c253_CLK_N
*1654 ANTENNA_c253_Q
*1655 ANTENNA_c253_Q_N
*1656 ANTENNA_c253_RESET_B
*1657 ANTENNA_c253_SCE
*1658 ANTENNA_c254_A2
*1659 ANTENNA_c254_S1
*1660 ANTENNA_c255_C_N
*1661 ANTENNA_c256_A0
*1662 ANTENNA_c256_A2
*1663 ANTENNA_c256_A3
*1664 ANTENNA_c256_S0
*1665 ANTENNA_c256_S1
*1666 ANTENNA_c257_A
*1667 ANTENNA_c257_C_N
*1668 ANTENNA_c258_C_N
*1669 ANTENNA_c259_A2
*1670 ANTENNA_c25_B
*1671 ANTENNA_c260_A
*1672 ANTENNA_c260_B
*1673 ANTENNA_c261_B
*1674 ANTENNA_c261_D_N
*1675 ANTENNA_c263_CLK_N
*1676 ANTENNA_c263_SCD
*1677 ANTENNA_c263_SCE
*1678 ANTENNA_c263_SET_B
*1679 ANTENNA_c264_B_N
*1680 ANTENNA_c265_A
*1681 ANTENNA_c265_B
*1682 ANTENNA_c266_B
*1683 ANTENNA_c266_Y
*1684 ANTENNA_c267_A
*1685 ANTENNA_c268_A
*1686 ANTENNA_c268_X
*1687 ANTENNA_c269_Y
*1688 ANTENNA_c26_B
*1689 ANTENNA_c270_Y
*1690 ANTENNA_c271_B
*1691 ANTENNA_c272_B
*1692 ANTENNA_c272_C
*1693 ANTENNA_c273_A
*1694 ANTENNA_c273_B_N
*1695 ANTENNA_c274_B
*1696 ANTENNA_c274_X
*1697 ANTENNA_c275_A_N
*1698 ANTENNA_c275_B
*1699 ANTENNA_c275_Y
*1700 ANTENNA_c276_B
*1701 ANTENNA_c277_C_N
*1702 ANTENNA_c277_D_N
*1703 ANTENNA_c277_X
*1704 ANTENNA_c278_C_N
*1705 ANTENNA_c279_B
*1706 ANTENNA_c27_B
*1707 ANTENNA_c280_A1
*1708 ANTENNA_c280_A2
*1709 ANTENNA_c280_D1
*1710 ANTENNA_c280_X
*1711 ANTENNA_c283_A1
*1712 ANTENNA_c283_A2
*1713 ANTENNA_c284_A1
*1714 ANTENNA_c285_A2
*1715 ANTENNA_c286_C
*1716 ANTENNA_c288_B
*1717 ANTENNA_c288_C
*1718 ANTENNA_c289_Y
*1719 ANTENNA_c290_C
*1720 ANTENNA_c291_A
*1721 ANTENNA_c292_A
*1722 ANTENNA_c292_B
*1723 ANTENNA_c293_B1
*1724 ANTENNA_c295_B
*1725 ANTENNA_c297_C
*1726 ANTENNA_c298_B
*1727 ANTENNA_c299_B
*1728 ANTENNA_c299_C_N
*1729 ANTENNA_c29_X
*1730 ANTENNA_c300_D1
*1731 ANTENNA_c302_C
*1732 ANTENNA_c303_A1
*1733 ANTENNA_c303_X
*1734 ANTENNA_c307_B
*1735 ANTENNA_c30_A
*1736 ANTENNA_c310_C
*1737 ANTENNA_c311_A1
*1738 ANTENNA_c311_A3
*1739 ANTENNA_c311_S1
*1740 ANTENNA_c314_Y
*1741 ANTENNA_c315_B
*1742 ANTENNA_c316_A
*1743 ANTENNA_c316_Y
*1744 ANTENNA_c317_X
*1745 ANTENNA_c31_B
*1746 ANTENNA_c320_X
*1747 ANTENNA_c322_B
*1748 ANTENNA_c323_C
*1749 ANTENNA_c324_B
*1750 ANTENNA_c326_A
*1751 ANTENNA_c327_B_N
*1752 ANTENNA_c327_Y
*1753 ANTENNA_c328_Y
*1754 ANTENNA_c329_B
*1755 ANTENNA_c329_Y
*1756 ANTENNA_c333_A
*1757 ANTENNA_c334_A1
*1758 ANTENNA_c334_A2
*1759 ANTENNA_c334_D1
*1760 ANTENNA_c335_A0
*1761 ANTENNA_c335_A1
*1762 ANTENNA_c335_A2
*1763 ANTENNA_c335_A3
*1764 ANTENNA_c335_S0
*1765 ANTENNA_c337_A
*1766 ANTENNA_c337_B
*1767 ANTENNA_c337_X
*1768 ANTENNA_c338_A
*1769 ANTENNA_c339_B_N
*1770 ANTENNA_c340_C
*1771 ANTENNA_c341_A
*1772 ANTENNA_c342_Y
*1773 ANTENNA_c343_A3
*1774 ANTENNA_c343_S0
*1775 ANTENNA_c343_S1