*SPEF "ieee 1481-1999"
*DESIGN "netlist_1"
*DATE "23:40:26 Saturday July 20, 2024"
*VENDOR "The OpenROAD Project"
*PROGRAM "OpenROAD"
*VERSION "d423155d69de7f683a23f6916ead418a615ad4ad"
*DESIGN_FLOW "NAME_SCOPE LOCAL" "PIN_CAP NONE"
*DIVIDER /
*DELIMITER :
*BUS_DELIMITER []
*T_UNIT 1 NS
*C_UNIT 1 PF
*R_UNIT 1 OHM
*L_UNIT 1 HENRY

*NAME_MAP
*3 clk
*4 in0
*5 in1
*6 in10
*7 in11
*8 in12
*9 in13
*10 in14
*11 in15
*12 in16
*13 in17
*14 in18
*15 in19
*16 in2
*17 in20
*18 in21
*19 in22
*20 in23
*21 in24
*22 in25
*23 in26
*24 in27
*25 in28
*26 in29
*27 in3
*28 in30
*29 in31
*30 in32
*31 in33
*32 in34
*33 in35
*34 in36
*35 in37
*36 in38
*37 in39
*38 in4
*39 in40
*40 in41
*41 in42
*42 in43
*43 in44
*44 in45
*45 in46
*46 in47
*47 in48
*48 in49
*49 in5
*50 in50
*51 in51
*52 in52
*53 in53
*54 in54
*55 in55
*56 in56
*57 in57
*58 in58
*59 in59
*60 in6
*61 in60
*62 in61
*63 in62
*64 in63
*65 in64
*66 in65
*67 in66
*68 in67
*69 in68
*70 in69
*71 in7
*72 in70
*73 in71
*74 in72
*75 in73
*76 in74
*77 in75
*78 in76
*79 in77
*80 in78
*81 in79
*82 in8
*83 in80
*84 in81
*85 in82
*86 in83
*87 in84
*88 in85
*89 in86
*90 in87
*91 in88
*92 in89
*93 in9
*94 in90
*95 in91
*96 in92
*97 in93
*98 in94
*99 in95
*100 in96
*101 in97
*102 in98
*103 in99
*104 out0
*105 out1
*106 out10
*107 out11
*108 out12
*109 out13
*110 out14
*111 out15
*112 out16
*113 out17
*114 out18
*115 out19
*116 out2
*117 out20
*118 out21
*119 out22
*120 out23
*121 out24
*122 out25
*123 out26
*124 out27
*125 out28
*126 out29
*127 out3
*128 out30
*129 out31
*130 out32
*131 out33
*132 out34
*133 out35
*134 out36
*135 out37
*136 out38
*137 out39
*138 out4
*139 out40
*140 out41
*141 out42
*142 out43
*143 out44
*144 out45
*145 out46
*146 out47
*147 out48
*148 out49
*149 out5
*150 out50
*151 out51
*152 out52
*153 out53
*154 out54
*155 out55
*156 out56
*157 out57
*158 out58
*159 out59
*160 out6
*161 out60
*162 out61
*163 out62
*164 out63
*165 out64
*166 out65
*167 out66
*168 out67
*169 out68
*170 out69
*171 out7
*172 out70
*173 out71
*174 out72
*175 out73
*176 out74
*177 out75
*178 out76
*179 out77
*180 out78
*181 out79
*182 out8
*183 out80
*184 out81
*185 out82
*186 out83
*187 out84
*188 out85
*189 out86
*190 out87
*191 out88
*192 out89
*193 out9
*194 out90
*195 out91
*196 out92
*197 out93
*198 out94
*199 out95
*200 out96
*201 out97
*202 out98
*203 out99
*204 rst
*205 clknet_0_clk
*206 clknet_0_net150
*207 clknet_0_net151
*208 clknet_0_net154
*209 clknet_0_net156
*210 clknet_0_net157
*211 clknet_0_net159
*212 clknet_0_net161
*213 clknet_0_net165
*214 clknet_0_net167
*215 clknet_0_net182
*216 clknet_0_net183
*217 clknet_0_net184
*218 clknet_0_net192
*219 clknet_0_net195
*220 clknet_0_net202
*221 clknet_0_net206
*222 clknet_0_net212
*223 clknet_0_net219
*224 clknet_0_net220
*225 clknet_0_net223
*226 clknet_0_net228
*227 clknet_0_net229
*228 clknet_0_net231
*229 clknet_0_net245
*230 clknet_0_net285
*231 clknet_0_net286
*232 clknet_0_net287
*233 clknet_0_net288
*234 clknet_0_net294
*235 clknet_0_net296
*236 clknet_0_net298
*237 clknet_0_net302
*238 clknet_0_net305
*239 clknet_0_net307
*240 clknet_0_net314
*241 clknet_0_net316
*242 clknet_0_net317
*243 clknet_0_net333
*244 clknet_0_net337
*245 clknet_0_net355
*246 clknet_0_net359
*247 clknet_0_net360
*248 clknet_0_net361
*249 clknet_0_net365
*250 clknet_0_net368
*251 clknet_0_net369
*252 clknet_0_net371
*253 clknet_0_net372
*254 clknet_0_net378
*255 clknet_0_net381
*256 clknet_0_net382
*257 clknet_0_net383
*258 clknet_0_net395
*259 clknet_0_net396
*260 clknet_0_net399
*261 clknet_0_net404
*262 clknet_0_net410
*263 clknet_0_net417
*264 clknet_0_net424
*265 clknet_0_net425
*266 clknet_0_net435
*267 clknet_0_net477
*268 clknet_0_net484
*269 clknet_0_net625
*270 clknet_0_net627
*271 clknet_0_net657
*272 clknet_0_net658
*273 clknet_0_net659
*274 clknet_0_net676
*275 clknet_0_net677
*276 clknet_0_net678
*277 clknet_0_net693
*278 clknet_0_net694
*279 clknet_0_net695
*280 clknet_0_net712
*281 clknet_0_net713
*282 clknet_0_net714
*283 clknet_0_net815
*284 clknet_0_net821
*285 clknet_0_net832
*286 clknet_0_net844
*287 clknet_0_net858
*288 clknet_1_0__leaf_net150
*289 clknet_1_0__leaf_net151
*290 clknet_1_0__leaf_net154
*291 clknet_1_0__leaf_net156
*292 clknet_1_0__leaf_net157
*293 clknet_1_0__leaf_net159
*294 clknet_1_0__leaf_net161
*295 clknet_1_0__leaf_net165
*296 clknet_1_0__leaf_net167
*297 clknet_1_0__leaf_net182
*298 clknet_1_0__leaf_net183
*299 clknet_1_0__leaf_net184
*300 clknet_1_0__leaf_net192
*301 clknet_1_0__leaf_net195
*302 clknet_1_0__leaf_net202
*303 clknet_1_0__leaf_net206
*304 clknet_1_0__leaf_net212
*305 clknet_1_0__leaf_net219
*306 clknet_1_0__leaf_net220
*307 clknet_1_0__leaf_net223
*308 clknet_1_0__leaf_net228
*309 clknet_1_0__leaf_net229
*310 clknet_1_0__leaf_net231
*311 clknet_1_0__leaf_net245
*312 clknet_1_0__leaf_net285
*313 clknet_1_0__leaf_net286
*314 clknet_1_0__leaf_net287
*315 clknet_1_0__leaf_net288
*316 clknet_1_0__leaf_net294
*317 clknet_1_0__leaf_net296
*318 clknet_1_0__leaf_net298
*319 clknet_1_0__leaf_net302
*320 clknet_1_0__leaf_net305
*321 clknet_1_0__leaf_net307
*322 clknet_1_0__leaf_net314
*323 clknet_1_0__leaf_net316
*324 clknet_1_0__leaf_net317
*325 clknet_1_0__leaf_net333
*326 clknet_1_0__leaf_net337
*327 clknet_1_0__leaf_net355
*328 clknet_1_0__leaf_net359
*329 clknet_1_0__leaf_net360
*330 clknet_1_0__leaf_net361
*331 clknet_1_0__leaf_net365
*332 clknet_1_0__leaf_net368
*333 clknet_1_0__leaf_net369
*334 clknet_1_0__leaf_net371
*335 clknet_1_0__leaf_net372
*336 clknet_1_0__leaf_net378
*337 clknet_1_0__leaf_net381
*338 clknet_1_0__leaf_net382
*339 clknet_1_0__leaf_net383
*340 clknet_1_0__leaf_net395
*341 clknet_1_0__leaf_net396
*342 clknet_1_0__leaf_net399
*343 clknet_1_0__leaf_net404
*344 clknet_1_0__leaf_net410
*345 clknet_1_0__leaf_net417
*346 clknet_1_0__leaf_net424
*347 clknet_1_0__leaf_net425
*348 clknet_1_0__leaf_net435
*349 clknet_1_0__leaf_net477
*350 clknet_1_0__leaf_net484
*351 clknet_1_0__leaf_net625
*352 clknet_1_0__leaf_net627
*353 clknet_1_0__leaf_net657
*354 clknet_1_0__leaf_net658
*355 clknet_1_0__leaf_net659
*356 clknet_1_0__leaf_net676
*357 clknet_1_0__leaf_net677
*358 clknet_1_0__leaf_net678
*359 clknet_1_0__leaf_net693
*360 clknet_1_0__leaf_net694
*361 clknet_1_0__leaf_net695
*362 clknet_1_0__leaf_net712
*363 clknet_1_0__leaf_net713
*364 clknet_1_0__leaf_net714
*365 clknet_1_0__leaf_net815
*366 clknet_1_0__leaf_net821
*367 clknet_1_0__leaf_net832
*368 clknet_1_0__leaf_net844
*369 clknet_1_0__leaf_net858
*370 clknet_1_1__leaf_net150
*371 clknet_1_1__leaf_net151
*372 clknet_1_1__leaf_net154
*373 clknet_1_1__leaf_net156
*374 clknet_1_1__leaf_net157
*375 clknet_1_1__leaf_net159
*376 clknet_1_1__leaf_net161
*377 clknet_1_1__leaf_net165
*378 clknet_1_1__leaf_net167
*379 clknet_1_1__leaf_net182
*380 clknet_1_1__leaf_net183
*381 clknet_1_1__leaf_net184
*382 clknet_1_1__leaf_net192
*383 clknet_1_1__leaf_net195
*384 clknet_1_1__leaf_net202
*385 clknet_1_1__leaf_net206
*386 clknet_1_1__leaf_net212
*387 clknet_1_1__leaf_net219
*388 clknet_1_1__leaf_net220
*389 clknet_1_1__leaf_net223
*390 clknet_1_1__leaf_net228
*391 clknet_1_1__leaf_net229
*392 clknet_1_1__leaf_net231
*393 clknet_1_1__leaf_net245
*394 clknet_1_1__leaf_net285
*395 clknet_1_1__leaf_net286
*396 clknet_1_1__leaf_net287
*397 clknet_1_1__leaf_net288
*398 clknet_1_1__leaf_net294
*399 clknet_1_1__leaf_net296
*400 clknet_1_1__leaf_net298
*401 clknet_1_1__leaf_net302
*402 clknet_1_1__leaf_net305
*403 clknet_1_1__leaf_net307
*404 clknet_1_1__leaf_net314
*405 clknet_1_1__leaf_net316
*406 clknet_1_1__leaf_net317
*407 clknet_1_1__leaf_net333
*408 clknet_1_1__leaf_net337
*409 clknet_1_1__leaf_net355
*410 clknet_1_1__leaf_net359
*411 clknet_1_1__leaf_net360
*412 clknet_1_1__leaf_net361
*413 clknet_1_1__leaf_net365
*414 clknet_1_1__leaf_net368
*415 clknet_1_1__leaf_net369
*416 clknet_1_1__leaf_net371
*417 clknet_1_1__leaf_net372
*418 clknet_1_1__leaf_net378
*419 clknet_1_1__leaf_net381
*420 clknet_1_1__leaf_net382
*421 clknet_1_1__leaf_net383
*422 clknet_1_1__leaf_net395
*423 clknet_1_1__leaf_net396
*424 clknet_1_1__leaf_net399
*425 clknet_1_1__leaf_net404
*426 clknet_1_1__leaf_net410
*427 clknet_1_1__leaf_net417
*428 clknet_1_1__leaf_net424
*429 clknet_1_1__leaf_net425
*430 clknet_1_1__leaf_net435
*431 clknet_1_1__leaf_net477
*432 clknet_1_1__leaf_net484
*433 clknet_1_1__leaf_net625
*434 clknet_1_1__leaf_net627
*435 clknet_1_1__leaf_net657
*436 clknet_1_1__leaf_net658
*437 clknet_1_1__leaf_net659
*438 clknet_1_1__leaf_net676
*439 clknet_1_1__leaf_net677
*440 clknet_1_1__leaf_net678
*441 clknet_1_1__leaf_net693
*442 clknet_1_1__leaf_net694
*443 clknet_1_1__leaf_net695
*444 clknet_1_1__leaf_net712
*445 clknet_1_1__leaf_net713
*446 clknet_1_1__leaf_net714
*447 clknet_1_1__leaf_net815
*448 clknet_1_1__leaf_net821
*449 clknet_1_1__leaf_net832
*450 clknet_1_1__leaf_net844
*451 clknet_1_1__leaf_net858
*452 clknet_4_0_0_clk
*453 clknet_4_10_0_clk
*454 clknet_4_11_0_clk
*455 clknet_4_12_0_clk
*456 clknet_4_13_0_clk
*457 clknet_4_14_0_clk
*458 clknet_4_15_0_clk
*459 clknet_4_1_0_clk
*460 clknet_4_2_0_clk
*461 clknet_4_3_0_clk
*462 clknet_4_4_0_clk
*463 clknet_4_5_0_clk
*464 clknet_4_6_0_clk
*465 clknet_4_7_0_clk
*466 clknet_4_8_0_clk
*467 clknet_4_9_0_clk
*468 net0
*469 net1
*470 net10
*471 net100
*472 net101
*473 net102
*474 net103
*475 net104
*476 net105
*477 net106
*478 net107
*479 net108
*480 net109
*481 net11
*482 net110
*483 net111
*484 net112
*485 net113
*486 net114
*487 net115
*488 net116
*489 net117
*490 net118
*491 net119
*492 net12
*493 net120
*494 net121
*495 net122
*496 net123
*497 net124
*498 net125
*499 net126
*500 net127
*501 net128
*502 net129
*503 net13
*504 net130
*505 net131
*506 net132
*507 net133
*508 net134
*509 net135
*510 net136
*511 net137
*512 net138
*513 net139
*514 net14
*515 net140
*516 net141
*517 net142
*518 net143
*519 net144
*520 net145
*521 net146
*522 net147
*523 net148
*524 net149
*525 net15
*526 net150
*527 net151
*528 net152
*529 net153
*530 net154
*531 net155
*532 net156
*533 net157
*534 net158
*535 net159
*536 net16
*537 net160
*538 net161
*539 net162
*540 net163
*541 net164
*542 net165
*543 net166
*544 net167
*545 net168
*546 net169
*547 net17
*548 net170
*549 net171
*550 net172
*551 net173
*552 net174
*553 net175
*554 net176
*555 net177
*556 net178
*557 net179
*558 net18
*559 net180
*560 net181
*561 net182
*562 net183
*563 net184
*564 net185
*565 net186
*566 net187
*567 net188
*568 net189
*569 net19
*570 net190
*571 net191
*572 net192
*573 net193
*574 net194
*575 net195
*576 net196
*577 net197
*578 net198
*579 net199
*580 net2
*581 net20
*582 net200
*583 net201
*584 net202
*585 net203
*586 net204
*587 net205
*588 net206
*589 net207
*590 net208
*591 net209
*592 net21
*593 net210
*594 net211
*595 net212
*596 net213
*597 net214
*598 net215
*599 net216
*600 net217
*601 net218
*602 net219
*603 net22
*604 net220
*605 net221
*606 net222
*607 net223
*608 net224
*609 net225
*610 net226
*611 net227
*612 net228
*613 net229
*614 net23
*615 net230
*616 net231
*617 net232
*618 net233
*619 net234
*620 net235
*621 net236
*622 net237
*623 net238
*624 net239
*625 net24
*626 net240
*627 net241
*628 net242
*629 net243
*630 net244
*631 net245
*632 net246
*633 net247
*634 net248
*635 net249
*636 net25
*637 net250
*638 net251
*639 net252
*640 net253
*641 net254
*642 net255
*643 net256
*644 net257
*645 net258
*646 net259
*647 net26
*648 net260
*649 net261
*650 net262
*651 net263
*652 net264
*653 net265
*654 net266
*655 net267
*656 net268
*657 net269
*658 net27
*659 net270
*660 net271
*661 net272
*662 net273
*663 net274
*664 net275
*665 net276
*666 net277
*667 net278
*668 net279
*669 net28
*670 net280
*671 net281
*672 net282
*673 net283
*674 net284
*675 net285
*676 net286
*677 net287
*678 net288
*679 net289
*680 net29
*681 net290
*682 net291
*683 net292
*684 net293
*685 net294
*686 net295
*687 net296
*688 net297
*689 net298
*690 net299
*691 net3
*692 net30
*693 net300
*694 net301
*695 net302
*696 net303
*697 net304
*698 net305
*699 net306
*700 net307
*701 net308
*702 net309
*703 net31
*704 net310
*705 net311
*706 net312
*707 net313
*708 net314
*709 net315
*710 net316
*711 net317
*712 net318
*713 net319
*714 net32
*715 net320
*716 net321
*717 net322
*718 net323
*719 net324
*720 net325
*721 net326
*722 net327
*723 net328
*724 net329
*725 net33
*726 net330
*727 net331
*728 net332
*729 net333
*730 net334
*731 net335
*732 net336
*733 net337
*734 net338
*735 net339
*736 net34
*737 net340
*738 net341
*739 net342
*740 net343
*741 net344
*742 net345
*743 net346
*744 net347
*745 net348
*746 net349
*747 net35
*748 net350
*749 net351
*750 net352
*751 net353
*752 net354
*753 net355
*754 net356
*755 net357
*756 net358
*757 net359
*758 net36
*759 net360
*760 net361
*761 net362
*762 net363
*763 net364
*764 net365
*765 net366
*766 net367
*767 net368
*768 net369
*769 net37
*770 net370
*771 net371
*772 net372
*773 net373
*774 net374
*775 net375
*776 net376
*777 net377
*778 net378
*779 net379
*780 net38
*781 net380
*782 net381
*783 net382
*784 net383
*785 net384
*786 net385
*787 net386
*788 net387
*789 net388
*790 net389
*791 net39
*792 net390
*793 net391
*794 net392
*795 net393
*796 net394
*797 net395
*798 net396
*799 net397
*800 net398
*801 net399
*802 net4
*803 net40
*804 net400
*805 net401
*806 net402
*807 net403
*808 net404
*809 net405
*810 net406
*811 net407
*812 net408
*813 net409
*814 net41
*815 net410
*816 net411
*817 net412
*818 net413
*819 net414
*820 net415
*821 net416
*822 net417
*823 net418
*824 net419
*825 net42
*826 net420
*827 net421
*828 net422
*829 net423
*830 net424
*831 net425
*832 net426
*833 net427
*834 net428
*835 net429
*836 net43
*837 net430
*838 net431
*839 net432
*840 net433
*841 net434
*842 net435
*843 net436
*844 net437
*845 net438
*846 net439
*847 net44
*848 net440
*849 net441
*850 net442
*851 net443
*852 net444
*853 net445
*854 net446
*855 net447
*856 net448
*857 net449
*858 net45
*859 net450
*860 net451
*861 net452
*862 net453
*863 net454
*864 net455
*865 net456
*866 net457
*867 net458
*868 net459
*869 net46
*870 net460
*871 net461
*872 net462
*873 net463
*874 net464
*875 net465
*876 net466
*877 net467
*878 net468
*879 net469
*880 net47
*881 net470
*882 net471
*883 net472
*884 net473
*885 net474
*886 net475
*887 net476
*888 net477
*889 net478
*890 net479
*891 net48
*892 net480
*893 net481
*894 net482
*895 net483
*896 net484
*897 net485
*898 net486
*899 net487
*900 net488
*901 net489
*902 net49
*903 net490
*904 net491
*905 net492
*906 net493
*907 net494
*908 net495
*909 net496
*910 net497
*911 net498
*912 net499
*913 net5
*914 net50
*915 net500
*916 net501
*917 net502
*918 net503
*919 net504
*920 net505
*921 net506
*922 net507
*923 net508
*924 net509
*925 net51
*926 net510
*927 net511
*928 net512
*929 net513
*930 net514
*931 net515
*932 net516
*933 net517
*934 net518
*935 net519
*936 net52
*937 net520
*938 net521
*939 net522
*940 net523
*941 net524
*942 net525
*943 net526
*944 net527
*945 net528
*946 net529
*947 net53
*948 net530
*949 net531
*950 net532
*951 net533
*952 net534
*953 net535
*954 net536
*955 net537
*956 net538
*957 net539
*958 net54
*959 net540
*960 net541
*961 net542
*962 net543
*963 net544
*964 net545
*965 net546
*966 net547
*967 net548
*968 net549
*969 net55
*970 net550
*971 net551
*972 net552
*973 net553
*974 net554
*975 net555
*976 net556
*977 net557
*978 net558
*979 net559
*980 net56
*981 net560
*982 net561
*983 net562
*984 net563
*985 net564
*986 net565
*987 net566
*988 net567
*989 net568
*990 net569
*991 net57
*992 net570
*993 net571
*994 net572
*995 net573
*996 net574
*997 net575
*998 net576
*999 net577
*1000 net578
*1001 net579
*1002 net58
*1003 net580
*1004 net581
*1005 net582
*1006 net583
*1007 net584
*1008 net585
*1009 net586
*1010 net587
*1011 net588
*1012 net589
*1013 net59
*1014 net590
*1015 net591
*1016 net592
*1017 net593
*1018 net594
*1019 net595
*1020 net596
*1021 net597
*1022 net598
*1023 net599
*1024 net6
*1025 net60
*1026 net600
*1027 net601
*1028 net602
*1029 net603
*1030 net604
*1031 net605
*1032 net606
*1033 net607
*1034 net608
*1035 net609
*1036 net61
*1037 net610
*1038 net611
*1039 net612
*1040 net613
*1041 net614
*1042 net615
*1043 net616
*1044 net617
*1045 net618
*1046 net619
*1047 net62
*1048 net620
*1049 net621
*1050 net622
*1051 net623
*1052 net624
*1053 net625
*1054 net626
*1055 net627
*1056 net628
*1057 net629
*1058 net63
*1059 net630
*1060 net631
*1061 net632
*1062 net633
*1063 net634
*1064 net635
*1065 net636
*1066 net637
*1067 net638
*1068 net639
*1069 net64
*1070 net640
*1071 net641
*1072 net642
*1073 net643
*1074 net644
*1075 net645
*1076 net646
*1077 net647
*1078 net648
*1079 net649
*1080 net65
*1081 net650
*1082 net651
*1083 net652
*1084 net653
*1085 net654
*1086 net655
*1087 net656
*1088 net657
*1089 net658
*1090 net659
*1091 net66
*1092 net660
*1093 net661
*1094 net662
*1095 net663
*1096 net664
*1097 net665
*1098 net666
*1099 net667
*1100 net668
*1101 net669
*1102 net67
*1103 net670
*1104 net671
*1105 net672
*1106 net673
*1107 net674
*1108 net675
*1109 net676
*1110 net677
*1111 net678
*1112 net679
*1113 net68
*1114 net680
*1115 net681
*1116 net682
*1117 net683
*1118 net684
*1119 net685
*1120 net686
*1121 net687
*1122 net688
*1123 net689
*1124 net69
*1125 net690
*1126 net691
*1127 net692
*1128 net693
*1129 net694
*1130 net695
*1131 net696
*1132 net697
*1133 net698
*1134 net699
*1135 net7
*1136 net70
*1137 net700
*1138 net701
*1139 net702
*1140 net703
*1141 net704
*1142 net705
*1143 net706
*1144 net707
*1145 net708
*1146 net709
*1147 net71
*1148 net710
*1149 net711
*1150 net712
*1151 net713
*1152 net714
*1153 net715
*1154 net716
*1155 net717
*1156 net718
*1157 net719
*1158 net72
*1159 net720
*1160 net721
*1161 net722
*1162 net723
*1163 net724
*1164 net725
*1165 net726
*1166 net727
*1167 net728
*1168 net729
*1169 net73
*1170 net730
*1171 net731
*1172 net732
*1173 net733
*1174 net734
*1175 net735
*1176 net736
*1177 net737
*1178 net738
*1179 net739
*1180 net74
*1181 net740
*1182 net741
*1183 net742
*1184 net743
*1185 net744
*1186 net745
*1187 net746
*1188 net747
*1189 net748
*1190 net749
*1191 net75
*1192 net750
*1193 net751
*1194 net752
*1195 net753
*1196 net754
*1197 net755
*1198 net756
*1199 net757
*1200 net758
*1201 net759
*1202 net76
*1203 net760
*1204 net761
*1205 net762
*1206 net763
*1207 net764
*1208 net765
*1209 net766
*1210 net767
*1211 net768
*1212 net769
*1213 net77
*1214 net770
*1215 net771
*1216 net772
*1217 net773
*1218 net774
*1219 net775
*1220 net776
*1221 net777
*1222 net778
*1223 net779
*1224 net78
*1225 net780
*1226 net781
*1227 net782
*1228 net783
*1229 net784
*1230 net785
*1231 net786
*1232 net787
*1233 net788
*1234 net789
*1235 net79
*1236 net790
*1237 net791
*1238 net792
*1239 net793
*1240 net794
*1241 net795
*1242 net796
*1243 net797
*1244 net798
*1245 net799
*1246 net8
*1247 net80
*1248 net800
*1249 net801
*1250 net802
*1251 net803
*1252 net804
*1253 net805
*1254 net806
*1255 net807
*1256 net808
*1257 net809
*1258 net81
*1259 net810
*1260 net811
*1261 net812
*1262 net813
*1263 net814
*1264 net815
*1265 net816
*1266 net817
*1267 net818
*1268 net819
*1269 net82
*1270 net820
*1271 net821
*1272 net822
*1273 net823
*1274 net824
*1275 net825
*1276 net826
*1277 net827
*1278 net828
*1279 net829
*1280 net83
*1281 net830
*1282 net831
*1283 net832
*1284 net833
*1285 net834
*1286 net835
*1287 net836
*1288 net837
*1289 net838
*1290 net839
*1291 net84
*1292 net840
*1293 net841
*1294 net842
*1295 net843
*1296 net844
*1297 net845
*1298 net846
*1299 net847
*1300 net848
*1301 net849
*1302 net85
*1303 net850
*1304 net851
*1305 net852
*1306 net853
*1307 net854
*1308 net855
*1309 net856
*1310 net857
*1311 net858
*1312 net859
*1313 net86
*1314 net860
*1315 net861
*1316 net862
*1317 net863
*1318 net864
*1319 net865
*1320 net866
*1321 net867
*1322 net868
*1323 net869
*1324 net87
*1325 net870
*1326 net871
*1327 net872
*1328 net873
*1329 net874
*1330 net875
*1331 net876
*1332 net877
*1333 net878
*1334 net879
*1335 net88
*1336 net880
*1337 net881
*1338 net882
*1339 net883
*1340 net884
*1341 net885
*1342 net886
*1343 net887
*1344 net888
*1345 net889
*1346 net89
*1347 net890
*1348 net891
*1349 net892
*1350 net893
*1351 net894
*1352 net895
*1353 net896
*1354 net897
*1355 net898
*1356 net899
*1357 net9
*1358 net90
*1359 net900
*1360 net901
*1361 net902
*1362 net903
*1363 net904
*1364 net905
*1365 net906
*1366 net907
*1367 net908
*1368 net909
*1369 net91
*1370 net910
*1371 net911
*1372 net912
*1373 net913
*1374 net914
*1375 net915
*1376 net916
*1377 net917
*1378 net918
*1379 net919
*1380 net92
*1381 net920
*1382 net921
*1383 net922
*1384 net923
*1385 net924
*1386 net925
*1387 net926
*1388 net927
*1389 net928
*1390 net929
*1391 net93
*1392 net930
*1393 net931
*1394 net932
*1395 net933
*1396 net934
*1397 net935
*1398 net936
*1399 net937
*1400 net938
*1401 net939
*1402 net94
*1403 net940
*1404 net941
*1405 net942
*1406 net943
*1407 net944
*1408 net945
*1409 net946
*1410 net947
*1411 net948
*1412 net949
*1413 net95
*1414 net950
*1415 net951
*1416 net952
*1417 net953
*1418 net954
*1419 net955
*1420 net956
*1421 net957
*1422 net958
*1423 net959
*1424 net96
*1425 net960
*1426 net961
*1427 net962
*1428 net963
*1429 net964
*1430 net965
*1431 net966
*1432 net967
*1433 net968
*1434 net969
*1435 net97
*1436 net970
*1437 net971
*1438 net972
*1439 net973
*1440 net974
*1441 net975
*1442 net976
*1443 net977
*1444 net978
*1445 net979
*1446 net98
*1447 net980
*1448 net981
*1449 net982
*1450 net983
*1451 net984
*1452 net985
*1453 net986
*1454 net987
*1455 net988
*1456 net989
*1457 net99
*1458 net990
*1459 net991
*1460 net992
*1461 net993
*1462 ANTENNA_1
*1463 ANTENNA_c100_C1
*1464 ANTENNA_c100_D1
*1465 ANTENNA_c100_X
*1466 ANTENNA_c101_A1
*1467 ANTENNA_c101_A2
*1468 ANTENNA_c101_B1
*1469 ANTENNA_c101_D1
*1470 ANTENNA_c102_A2
*1471 ANTENNA_c102_B1
*1472 ANTENNA_c103_C1
*1473 ANTENNA_c104_A1
*1474 ANTENNA_c104_A2
*1475 ANTENNA_c104_A3
*1476 ANTENNA_c104_S0
*1477 ANTENNA_c104_S1
*1478 ANTENNA_c104_X
*1479 ANTENNA_c105_A2
*1480 ANTENNA_c105_D1
*1481 ANTENNA_c106_A1
*1482 ANTENNA_c106_A3
*1483 ANTENNA_c107_A1
*1484 ANTENNA_c107_S0
*1485 ANTENNA_c108_C1
*1486 ANTENNA_c108_D1
*1487 ANTENNA_c108_Y
*1488 ANTENNA_c109_A1
*1489 ANTENNA_c109_A2
*1490 ANTENNA_c122_B
*1491 ANTENNA_c123_A
*1492 ANTENNA_c124_A
*1493 ANTENNA_c124_B
*1494 ANTENNA_c124_Y
*1495 ANTENNA_c125_A1
*1496 ANTENNA_c125_A2
*1497 ANTENNA_c125_C1
*1498 ANTENNA_c126_X
*1499 ANTENNA_c127_A
*1500 ANTENNA_c127_B
*1501 ANTENNA_c127_X
*1502 ANTENNA_c128_A2
*1503 ANTENNA_c128_B1
*1504 ANTENNA_c128_C1
*1505 ANTENNA_c128_X
*1506 ANTENNA_c129_A2
*1507 ANTENNA_c129_A3
*1508 ANTENNA_c129_S1
*1509 ANTENNA_c130_A0
*1510 ANTENNA_c130_A1
*1511 ANTENNA_c130_A3
*1512 ANTENNA_c130_S1
*1513 ANTENNA_c131_A0
*1514 ANTENNA_c131_S0
*1515 ANTENNA_c132_A
*1516 ANTENNA_c132_B
*1517 ANTENNA_c132_X
*1518 ANTENNA_c133_C_N
*1519 ANTENNA_c135_C_N
*1520 ANTENNA_c135_X
*1521 ANTENNA_c136_A1
*1522 ANTENNA_c137_B
*1523 ANTENNA_c138_C_N
*1524 ANTENNA_c139_B1
*1525 ANTENNA_c139_C1
*1526 ANTENNA_c139_D1
*1527 ANTENNA_c139_Y
*1528 ANTENNA_c140_B1
*1529 ANTENNA_c140_C1
*1530 ANTENNA_c142_X
*1531 ANTENNA_c144_A
*1532 ANTENNA_c145_X
*1533 ANTENNA_c146_A
*1534 ANTENNA_c146_B
*1535 ANTENNA_c147_D1
*1536 ANTENNA_c149_X
*1537 ANTENNA_c150_A3
*1538 ANTENNA_c150_S0
*1539 ANTENNA_c150_X
*1540 ANTENNA_c151_C_N
*1541 ANTENNA_c152_A1
*1542 ANTENNA_c152_A2
*1543 ANTENNA_c152_S1
*1544 ANTENNA_c152_X
*1545 ANTENNA_c153_A
*1546 ANTENNA_c153_B
*1547 ANTENNA_c153_D_N
*1548 ANTENNA_c154_B_N
*1549 ANTENNA_c155_C_N
*1550 ANTENNA_c155_X
*1551 ANTENNA_c156_B
*1552 ANTENNA_c157_B
*1553 ANTENNA_c157_C
*1554 ANTENNA_c159_C
*1555 ANTENNA_c159_D
*1556 ANTENNA_c160_A
*1557 ANTENNA_c160_X
*1558 ANTENNA_c161_A2
*1559 ANTENNA_c161_C1
*1560 ANTENNA_c161_D1
*1561 ANTENNA_c161_X
*1562 ANTENNA_c162_A_N
*1563 ANTENNA_c163_Y
*1564 ANTENNA_c164_B
*1565 ANTENNA_c164_Y
*1566 ANTENNA_c166_D_N
*1567 ANTENNA_c167_A_N
*1568 ANTENNA_c167_Y
*1569 ANTENNA_c168_A
*1570 ANTENNA_c168_B
*1571 ANTENNA_c168_C
*1572 ANTENNA_c169_C
*1573 ANTENNA_c169_D
*1574 ANTENNA_c170_A2
*1575 ANTENNA_c170_D1
*1576 ANTENNA_c172_B
*1577 ANTENNA_c172_C
*1578 ANTENNA_c173_A0
*1579 ANTENNA_c173_A1
*1580 ANTENNA_c173_S0
*1581 ANTENNA_c174_C1
*1582 ANTENNA_c174_D1
*1583 ANTENNA_c175_A
*1584 ANTENNA_c176_B
*1585 ANTENNA_c176_X
*1586 ANTENNA_c177_B
*1587 ANTENNA_c177_C
*1588 ANTENNA_c178_B
*1589 ANTENNA_c178_D_N
*1590 ANTENNA_c179_B1
*1591 ANTENNA_c179_C1
*1592 ANTENNA_c179_D1
*1593 ANTENNA_c180_B
*1594 ANTENNA_c180_C
*1595 ANTENNA_c181_C_N
*1596 ANTENNA_c181_Y
*1597 ANTENNA_c182_C
*1598 ANTENNA_c184_C_N
*1599 ANTENNA_c184_X
*1600 ANTENNA_c185_B
*1601 ANTENNA_c186_A
*1602 ANTENNA_c187_Y
*1603 ANTENNA_c189_B
*1604 ANTENNA_c189_C
*1605 ANTENNA_c190_A
*1606 ANTENNA_c191_A
*1607 ANTENNA_c193_A3
*1608 ANTENNA_c193_S1
*1609 ANTENNA_c194_A1
*1610 ANTENNA_c194_S0
*1611 ANTENNA_c195_A3
*1612 ANTENNA_c195_S1
*1613 ANTENNA_c196_X
*1614 ANTENNA_c197_A3
*1615 ANTENNA_c197_X
*1616 ANTENNA_c198_B
*1617 ANTENNA_c199_Y
*1618 ANTENNA_c200_A
*1619 ANTENNA_c201_C
*1620 ANTENNA_c202_B
*1621 ANTENNA_c202_Y
*1622 ANTENNA_c203_A_N
*1623 ANTENNA_c204_C
*1624 ANTENNA_c205_S1
*1625 ANTENNA_c209_C
*1626 ANTENNA_c209_D
*1627 ANTENNA_c210_B
*1628 ANTENNA_c211_A1
*1629 ANTENNA_c211_A2
*1630 ANTENNA_c211_A3
*1631 ANTENNA_c211_S0
*1632 ANTENNA_c212_B
*1633 ANTENNA_c213_B
*1634 ANTENNA_c214_A1
*1635 ANTENNA_c214_A2
*1636 ANTENNA_c214_A3
*1637 ANTENNA_c214_S1
*1638 ANTENNA_c215_A2
*1639 ANTENNA_c218_A3
*1640 ANTENNA_c219_S1
*1641 ANTENNA_c220_B_N
*1642 ANTENNA_c223_B
*1643 ANTENNA_c225_X
*1644 ANTENNA_c226_X
*1645 ANTENNA_c227_A2
*1646 ANTENNA_c227_B1
*1647 ANTENNA_c227_D1
*1648 ANTENNA_c227_X
*1649 ANTENNA_c228_A
*1650 ANTENNA_c228_B
*1651 ANTENNA_c229_A1
*1652 ANTENNA_c229_A2
*1653 ANTENNA_c230_B
*1654 ANTENNA_c231_B_N
*1655 ANTENNA_c232_B
*1656 ANTENNA_c232_X
*1657 ANTENNA_c234_A2
*1658 ANTENNA_c234_B1
*1659 ANTENNA_c234_C1
*1660 ANTENNA_c235_A2
*1661 ANTENNA_c235_C1
*1662 ANTENNA_c235_X
*1663 ANTENNA_c236_A
*1664 ANTENNA_c236_X
*1665 ANTENNA_c238_B
*1666 ANTENNA_c238_C
*1667 ANTENNA_c238_X
*1668 ANTENNA_c239_A0
*1669 ANTENNA_c239_A3
*1670 ANTENNA_c239_S1
*1671 ANTENNA_c239_X
*1672 ANTENNA_c240_A0
*1673 ANTENNA_c240_A2
*1674 ANTENNA_c240_S0
*1675 ANTENNA_c240_S1
*1676 ANTENNA_c241_A0
*1677 ANTENNA_c241_A2
*1678 ANTENNA_c241_A3
*1679 ANTENNA_c241_S0
*1680 ANTENNA_c264_B
*1681 ANTENNA_c265_B
*1682 ANTENNA_c265_C
*1683 ANTENNA_c266_B
*1684 ANTENNA_c266_C
*1685 ANTENNA_c266_X
*1686 ANTENNA_c267_B
*1687 ANTENNA_c267_Y
*1688 ANTENNA_c269_C
*1689 ANTENNA_c270_A
*1690 ANTENNA_c270_C_N
*1691 ANTENNA_c270_X
*1692 ANTENNA_c271_A
*1693 ANTENNA_c271_D
*1694 ANTENNA_c273_Q
*1695 ANTENNA_c273_Q_N
*1696 ANTENNA_c273_SCD
*1697 ANTENNA_c273_SET_B
*1698 ANTENNA_c274_CLK
*1699 ANTENNA_c274_Q
*1700 ANTENNA_c274_RESET_B
*1701 ANTENNA_c274_SCE
*1702 ANTENNA_c275_D
*1703 ANTENNA_c275_Q
*1704 ANTENNA_c276_D
*1705 ANTENNA_c276_Q
*1706 ANTENNA_c276_Q_N
*1707 ANTENNA_c276_SCE
*1708 ANTENNA_c277_A_N
*1709 ANTENNA_c277_B
*1710 ANTENNA_c277_Y
*1711 ANTENNA_c278_S0
*1712 ANTENNA_c278_S1
*1713 ANTENNA_c279_A
*1714 ANTENNA_c280_A0
*1715 ANTENNA_c280_A1
*1716 ANTENNA_c280_S0
*1717 ANTENNA_c281_RESET_B
*1718 ANTENNA_c281_SET_B
*1719 ANTENNA_c282_A1
*1720 ANTENNA_c282_S0
*1721 ANTENNA_c282_S1
*1722 ANTENNA_c282_X
*1723 ANTENNA_c283_A0
*1724 ANTENNA_c283_A2
*1725 ANTENNA_c283_S1
*1726 ANTENNA_c284_A1
*1727 ANTENNA_c284_S1
*1728 ANTENNA_c285_A2
*1729 ANTENNA_c285_A3
*1730 ANTENNA_c285_S0
*1731 ANTENNA_c286_B
*1732 ANTENNA_c286_C
*1733 ANTENNA_c287_B
*1734 ANTENNA_c287_C
*1735 ANTENNA_c288_A
*1736 ANTENNA_c288_B
*1737 ANTENNA_c289_B
*1738 ANTENNA_c289_C
*1739 ANTENNA_c289_X
*1740 ANTENNA_c290_A
*1741 ANTENNA_c290_C_N
*1742 ANTENNA_c292_C
*1743 ANTENNA_c294_A1
*1744 ANTENNA_c294_A3
*1745 ANTENNA_c294_S1
*1746 ANTENNA_c294_X
*1747 ANTENNA_c295_D1
*1748 ANTENNA_c299_A_N
*1749 ANTENNA_c299_C
*1750 ANTENNA_c299_Y
*1751 ANTENNA_c300_A1
*1752 ANTENNA_c300_A2
*1753 ANTENNA_c300_A3
*1754 ANTENNA_c300_S0
*1755 ANTENNA_c300_S1
*1756 ANTENNA_c301_A0
*1757 ANTENNA_c302_CLK
*1758 ANTENNA_c302_Q
*1759 ANTENNA_c302_Q_N
*1760 ANTENNA_c302_RESET_B
*1761 ANTENNA_c302_SCE
*1762 ANTENNA_c303_A3
*1763 ANTENNA_c303_S0
*1764 ANTENNA_c304_A3
*1765 ANTENNA_c304_S0
*1766 ANTENNA_c305_A1
*1767 ANTENNA_c305_A3
*1768 ANTENNA_c306_A2
*1769 ANTENNA_c307_B1
*1770 ANTENNA_c308_C_N
*1771 ANTENNA_c309_B
*1772 ANTENNA_c309_Y
*1773 ANTENNA_c310_A
*1774 ANTENNA_c310_B
*1775 ANTENNA_c310_C
*1776 ANTENNA_c311_B
*1777 ANTENNA_c311_C
*1778 ANTENNA_c312_B
*1779 ANTENNA_c312_C_N
*1780 ANTENNA_c312_X
*1781 ANTENNA_c313_A
*1782 ANTENNA_c313_B
*1783 ANTENNA_c315_A
*1784 ANTENNA_c315_C
*1785 ANTENNA_c316_A0
*1786 ANTENNA_c316_A1
*1787 ANTENNA_c316_S0
*1788 ANTENNA_c317_B
*1789 ANTENNA_c318_A
*1790 ANTENNA_c318_B
*1791 ANTENNA_c318_C
*1792 ANTENNA_c318_D
*1793 ANTENNA_c320_C
*1794 ANTENNA_c320_D
*1795 ANTENNA_c321_Y
*1796 ANTENNA_c323_CLK_N
*1797 ANTENNA_c324_A0
*1798 ANTENNA_c324_A2
*1799 ANTENNA_c324_S0
*1800 ANTENNA_c324_S1
*1801 ANTENNA_c325_A2
*1802 ANTENNA_c325_A3
*1803 ANTENNA_c325_S0
*1804 ANTENNA_c326_A2
*1805 ANTENNA_c326_S0
*1806 ANTENNA_c326_S1
*1807 ANTENNA_c327_A1
*1808 ANTENNA_c327_A2
*1809 ANTENNA_c327_A3
*1810 ANTENNA_c327_S1
*1811 ANTENNA_c328_A3
*1812 ANTENNA_c329_A2
*1813 ANTENNA_c329_A3
*1814 ANTENNA_c329_S1
*1815 ANTENNA_c331_A
*1816 ANTENNA_c331_B
*1817 ANTENNA_c332_B_N
*1818 ANTENNA_c332_C
*1819 ANTENNA_c333_A
*1820 ANTENNA_c333_X
*1821 ANTENNA_c334_B
*1822 ANTENNA_c334_C
*1823 ANTENNA_c334_X
*1824 ANTENNA_c335_A
*1825 ANTENNA_c335_B
*1826 ANTENNA_c335_C_N
*1827 ANTENNA_c335_Y
*1828 ANTENNA_c336_A_N
*1829 ANTENNA_c336_B
*1830 ANTENNA_c336_C
*1831 ANTENNA_c337_A0
*1832 ANTENNA_c337_A1
*1833 ANTENNA_c337_A2
*1834 ANTENNA_c337_A3
*1835 ANTENNA_c337_S0
*1836 ANTENNA_c337_S1
*1837 ANTENNA_c338_A0
*1838 ANTENNA_c338_A2
*1839 ANTENNA_c338_S1
*1840 ANTENNA_c339_A2
*1841 ANTENNA_c339_B1
*1842 ANTENNA_c339_D1
*1843 ANTENNA_c340_B
*1844 ANTENNA_c340_C
*1845 ANTENNA_c340_D
*1846 ANTENNA_c341_A
*1847 ANTENNA_c342_A1
*1848 ANTENNA_c342_A2
*1849 ANTENNA_c342_A3
*1850 ANTENNA_c342_S1
*1851 ANTENNA_c342_X
*1852 ANTENNA_c343_A0
*1853 ANTENNA_c343_A2
*1854 ANTENNA_c343_S1